
---------- Begin Simulation Statistics ----------
final_tick                               498367276000                       # Number of ticks from beginning of simulation (restored from checkpoints and never reset)
host_inst_rate                                 173907                       # Simulator instruction rate (inst/s)
host_mem_usage                                 674112                       # Number of bytes of host memory used
host_op_rate                                   320369                       # Simulator op (including micro ops) rate (op/s)
host_seconds                                   575.02                       # Real time elapsed on the host
host_tick_rate                              866693643                       # Simulator tick rate (ticks/s)
sim_freq                                 1000000000000                       # Frequency of simulated ticks
sim_insts                                   100000001                       # Number of instructions simulated
sim_ops                                     184218798                       # Number of ops (including micro ops) simulated
sim_seconds                                  0.498367                       # Number of seconds simulated
sim_ticks                                498367276000                       # Number of ticks simulated
system.cpu.committedInsts                   100000001                       # Number of instructions committed
system.cpu.committedOps                     184218798                       # Number of ops (including micro ops) committed
system.cpu.cpi                               4.983673                       # CPI: cycles per instruction
system.cpu.discardedOps                          4359                       # Number of ops (including micro ops) which were discarded before commit
system.cpu.idleCycles                       279312730                       # Total number of cycles that the object has spent stopped
system.cpu.ipc                               0.200655                       # IPC: instructions per cycle
system.cpu.numCycles                        498367276                       # number of cpu cycles simulated
system.cpu.numFetchSuspends                         0                       # Number of times Execute suspended instruction fetching
system.cpu.numWorkItemsCompleted                    0                       # number of work items this cpu completed
system.cpu.numWorkItemsStarted                      0                       # number of work items this cpu started
system.cpu.op_class_0::No_OpClass                   0      0.00%      0.00% # Class of committed instruction
system.cpu.op_class_0::IntAlu                97640478     53.00%     53.00% # Class of committed instruction
system.cpu.op_class_0::IntMult                 114699      0.06%     53.06% # Class of committed instruction
system.cpu.op_class_0::IntDiv                       0      0.00%     53.06% # Class of committed instruction
system.cpu.op_class_0::FloatAdd                     0      0.00%     53.06% # Class of committed instruction
system.cpu.op_class_0::FloatCmp                     0      0.00%     53.06% # Class of committed instruction
system.cpu.op_class_0::FloatCvt                     0      0.00%     53.06% # Class of committed instruction
system.cpu.op_class_0::FloatMult                    0      0.00%     53.06% # Class of committed instruction
system.cpu.op_class_0::FloatMultAcc                 0      0.00%     53.06% # Class of committed instruction
system.cpu.op_class_0::FloatDiv                     0      0.00%     53.06% # Class of committed instruction
system.cpu.op_class_0::FloatMisc                    0      0.00%     53.06% # Class of committed instruction
system.cpu.op_class_0::FloatSqrt                    0      0.00%     53.06% # Class of committed instruction
system.cpu.op_class_0::SimdAdd                      8      0.00%     53.06% # Class of committed instruction
system.cpu.op_class_0::SimdAddAcc                   0      0.00%     53.06% # Class of committed instruction
system.cpu.op_class_0::SimdAlu                      8      0.00%     53.06% # Class of committed instruction
system.cpu.op_class_0::SimdCmp                      6      0.00%     53.06% # Class of committed instruction
system.cpu.op_class_0::SimdCvt                      0      0.00%     53.06% # Class of committed instruction
system.cpu.op_class_0::SimdMisc                     1      0.00%     53.06% # Class of committed instruction
system.cpu.op_class_0::SimdMult                     0      0.00%     53.06% # Class of committed instruction
system.cpu.op_class_0::SimdMultAcc                  0      0.00%     53.06% # Class of committed instruction
system.cpu.op_class_0::SimdShift                    0      0.00%     53.06% # Class of committed instruction
system.cpu.op_class_0::SimdShiftAcc                 0      0.00%     53.06% # Class of committed instruction
system.cpu.op_class_0::SimdDiv                      0      0.00%     53.06% # Class of committed instruction
system.cpu.op_class_0::SimdSqrt                     0      0.00%     53.06% # Class of committed instruction
system.cpu.op_class_0::SimdFloatAdd                 0      0.00%     53.06% # Class of committed instruction
system.cpu.op_class_0::SimdFloatAlu                 0      0.00%     53.06% # Class of committed instruction
system.cpu.op_class_0::SimdFloatCmp                 0      0.00%     53.06% # Class of committed instruction
system.cpu.op_class_0::SimdFloatCvt                 0      0.00%     53.06% # Class of committed instruction
system.cpu.op_class_0::SimdFloatDiv                 0      0.00%     53.06% # Class of committed instruction
system.cpu.op_class_0::SimdFloatMisc               23      0.00%     53.06% # Class of committed instruction
system.cpu.op_class_0::SimdFloatMult                0      0.00%     53.06% # Class of committed instruction
system.cpu.op_class_0::SimdFloatMultAcc             0      0.00%     53.06% # Class of committed instruction
system.cpu.op_class_0::SimdFloatSqrt                0      0.00%     53.06% # Class of committed instruction
system.cpu.op_class_0::SimdReduceAdd                0      0.00%     53.06% # Class of committed instruction
system.cpu.op_class_0::SimdReduceAlu                0      0.00%     53.06% # Class of committed instruction
system.cpu.op_class_0::SimdReduceCmp                0      0.00%     53.06% # Class of committed instruction
system.cpu.op_class_0::SimdFloatReduceAdd            0      0.00%     53.06% # Class of committed instruction
system.cpu.op_class_0::SimdFloatReduceCmp            0      0.00%     53.06% # Class of committed instruction
system.cpu.op_class_0::SimdAes                      0      0.00%     53.06% # Class of committed instruction
system.cpu.op_class_0::SimdAesMix                   0      0.00%     53.06% # Class of committed instruction
system.cpu.op_class_0::SimdSha1Hash                 0      0.00%     53.06% # Class of committed instruction
system.cpu.op_class_0::SimdSha1Hash2                0      0.00%     53.06% # Class of committed instruction
system.cpu.op_class_0::SimdSha256Hash               0      0.00%     53.06% # Class of committed instruction
system.cpu.op_class_0::SimdSha256Hash2              0      0.00%     53.06% # Class of committed instruction
system.cpu.op_class_0::SimdShaSigma2                0      0.00%     53.06% # Class of committed instruction
system.cpu.op_class_0::SimdShaSigma3                0      0.00%     53.06% # Class of committed instruction
system.cpu.op_class_0::SimdPredAlu                  0      0.00%     53.06% # Class of committed instruction
system.cpu.op_class_0::MemRead                2082677      1.13%     54.20% # Class of committed instruction
system.cpu.op_class_0::MemWrite              84380898     45.80%    100.00% # Class of committed instruction
system.cpu.op_class_0::FloatMemRead                 0      0.00%    100.00% # Class of committed instruction
system.cpu.op_class_0::FloatMemWrite                0      0.00%    100.00% # Class of committed instruction
system.cpu.op_class_0::IprAccess                    0      0.00%    100.00% # Class of committed instruction
system.cpu.op_class_0::InstPrefetch                 0      0.00%    100.00% # Class of committed instruction
system.cpu.op_class_0::total                184218798                       # Class of committed instruction
system.cpu.tickCycles                       219054546                       # Number of cycles that the object actually ticked
system.cpu.workload.numSyscalls                    18                       # Number of system calls
system.membus.snoop_filter.hit_multi_requests            0                       # Number of requests hitting in the snoop filter with multiple (>1) holders of the requested data.
system.membus.snoop_filter.hit_multi_snoops            0                       # Number of snoops hitting in the snoop filter with multiple (>1) holders of the requested data.
system.membus.snoop_filter.hit_single_requests      2599025                       # Number of requests hitting in the snoop filter with a single holder of the requested data.
system.membus.snoop_filter.hit_single_snoops            0                       # Number of snoops hitting in the snoop filter with a single holder of the requested data.
system.membus.snoop_filter.tot_requests       5231201                       # Total number of requests made to the snoop filter.
system.membus.snoop_filter.tot_snoops               0                       # Total number of snoops made to the snoop filter.
system.tol2bus.snoop_filter.hit_multi_requests           61                       # Number of requests hitting in the snoop filter with multiple (>1) holders of the requested data.
system.tol2bus.snoop_filter.hit_multi_snoops            0                       # Number of snoops hitting in the snoop filter with multiple (>1) holders of the requested data.
system.tol2bus.snoop_filter.hit_single_requests      2631686                       # Number of requests hitting in the snoop filter with a single holder of the requested data.
system.tol2bus.snoop_filter.hit_single_snoops          411                       # Number of snoops hitting in the snoop filter with a single holder of the requested data.
system.tol2bus.snoop_filter.tot_requests      5264281                       # Total number of requests made to the snoop filter.
system.tol2bus.snoop_filter.tot_snoops            411                       # Total number of snoops made to the snoop filter.
system.clk_domain.clock                          1000                       # Clock period in ticks
system.cpu.branchPred.lookups                10658281                       # Number of BP lookups
system.cpu.branchPred.condPredicted          10650019                       # Number of conditional branches predicted
system.cpu.branchPred.condIncorrect              1442                       # Number of conditional branches incorrect
system.cpu.branchPred.BTBLookups             10650235                       # Number of BTB lookups
system.cpu.branchPred.BTBHits                10648843                       # Number of BTB hits
system.cpu.branchPred.BTBHitPct             99.986930                       # BTB Hit Percentage
system.cpu.branchPred.RASUsed                    2717                       # Number of times the RAS was used to get a target.
system.cpu.branchPred.RASIncorrect                  1                       # Number of incorrect RAS predictions.
system.cpu.branchPred.indirectLookups             199                       # Number of indirect predictor lookups.
system.cpu.branchPred.indirectHits                 24                       # Number of indirect target hits.
system.cpu.branchPred.indirectMisses              175                       # Number of indirect misses.
system.cpu.branchPred.indirectMispredicted          103                       # Number of mispredicted indirect branches.
system.cpu.dcache.demand_hits::.cpu.data     81118274                       # number of demand (read+write) hits
system.cpu.dcache.demand_hits::total         81118274                       # number of demand (read+write) hits
system.cpu.dcache.overall_hits::.cpu.data     81118317                       # number of overall hits
system.cpu.dcache.overall_hits::total        81118317                       # number of overall hits
system.cpu.dcache.demand_misses::.cpu.data      5262425                       # number of demand (read+write) misses
system.cpu.dcache.demand_misses::total        5262425                       # number of demand (read+write) misses
system.cpu.dcache.overall_misses::.cpu.data      5262453                       # number of overall misses
system.cpu.dcache.overall_misses::total       5262453                       # number of overall misses
system.cpu.dcache.demand_miss_latency::.cpu.data 634454144000                       # number of demand (read+write) miss cycles
system.cpu.dcache.demand_miss_latency::total 634454144000                       # number of demand (read+write) miss cycles
system.cpu.dcache.overall_miss_latency::.cpu.data 634454144000                       # number of overall miss cycles
system.cpu.dcache.overall_miss_latency::total 634454144000                       # number of overall miss cycles
system.cpu.dcache.demand_accesses::.cpu.data     86380699                       # number of demand (read+write) accesses
system.cpu.dcache.demand_accesses::total     86380699                       # number of demand (read+write) accesses
system.cpu.dcache.overall_accesses::.cpu.data     86380770                       # number of overall (read+write) accesses
system.cpu.dcache.overall_accesses::total     86380770                       # number of overall (read+write) accesses
system.cpu.dcache.demand_miss_rate::.cpu.data     0.060921                       # miss rate for demand accesses
system.cpu.dcache.demand_miss_rate::total     0.060921                       # miss rate for demand accesses
system.cpu.dcache.overall_miss_rate::.cpu.data     0.060922                       # miss rate for overall accesses
system.cpu.dcache.overall_miss_rate::total     0.060922                       # miss rate for overall accesses
system.cpu.dcache.demand_avg_miss_latency::.cpu.data 120563.075768                       # average overall miss latency
system.cpu.dcache.demand_avg_miss_latency::total 120563.075768                       # average overall miss latency
system.cpu.dcache.overall_avg_miss_latency::.cpu.data 120562.434287                       # average overall miss latency
system.cpu.dcache.overall_avg_miss_latency::total 120562.434287                       # average overall miss latency
system.cpu.dcache.blocked_cycles::no_mshrs            0                       # number of cycles access was blocked
system.cpu.dcache.blocked_cycles::no_targets            0                       # number of cycles access was blocked
system.cpu.dcache.blocked::no_mshrs                 0                       # number of cycles access was blocked
system.cpu.dcache.blocked::no_targets               0                       # number of cycles access was blocked
system.cpu.dcache.avg_blocked_cycles::no_mshrs          nan                       # average number of cycles each access was blocked
system.cpu.dcache.avg_blocked_cycles::no_targets          nan                       # average number of cycles each access was blocked
system.cpu.dcache.writebacks::.writebacks      2631301                       # number of writebacks
system.cpu.dcache.writebacks::total           2631301                       # number of writebacks
system.cpu.dcache.demand_mshr_hits::.cpu.data      2630247                       # number of demand (read+write) MSHR hits
system.cpu.dcache.demand_mshr_hits::total      2630247                       # number of demand (read+write) MSHR hits
system.cpu.dcache.overall_mshr_hits::.cpu.data      2630247                       # number of overall MSHR hits
system.cpu.dcache.overall_mshr_hits::total      2630247                       # number of overall MSHR hits
system.cpu.dcache.demand_mshr_misses::.cpu.data      2632178                       # number of demand (read+write) MSHR misses
system.cpu.dcache.demand_mshr_misses::total      2632178                       # number of demand (read+write) MSHR misses
system.cpu.dcache.overall_mshr_misses::.cpu.data      2632196                       # number of overall MSHR misses
system.cpu.dcache.overall_mshr_misses::total      2632196                       # number of overall MSHR misses
system.cpu.dcache.demand_mshr_miss_latency::.cpu.data 308117359000                       # number of demand (read+write) MSHR miss cycles
system.cpu.dcache.demand_mshr_miss_latency::total 308117359000                       # number of demand (read+write) MSHR miss cycles
system.cpu.dcache.overall_mshr_miss_latency::.cpu.data 308119801000                       # number of overall MSHR miss cycles
system.cpu.dcache.overall_mshr_miss_latency::total 308119801000                       # number of overall MSHR miss cycles
system.cpu.dcache.demand_mshr_miss_rate::.cpu.data     0.030472                       # mshr miss rate for demand accesses
system.cpu.dcache.demand_mshr_miss_rate::total     0.030472                       # mshr miss rate for demand accesses
system.cpu.dcache.overall_mshr_miss_rate::.cpu.data     0.030472                       # mshr miss rate for overall accesses
system.cpu.dcache.overall_mshr_miss_rate::total     0.030472                       # mshr miss rate for overall accesses
system.cpu.dcache.demand_avg_mshr_miss_latency::.cpu.data 117057.949348                       # average overall mshr miss latency
system.cpu.dcache.demand_avg_mshr_miss_latency::total 117057.949348                       # average overall mshr miss latency
system.cpu.dcache.overall_avg_mshr_miss_latency::.cpu.data 117058.076602                       # average overall mshr miss latency
system.cpu.dcache.overall_avg_mshr_miss_latency::total 117058.076602                       # average overall mshr miss latency
system.cpu.dcache.replacements                2631684                       # number of replacements
system.cpu.dcache.ReadReq_hits::.cpu.data      2043690                       # number of ReadReq hits
system.cpu.dcache.ReadReq_hits::total         2043690                       # number of ReadReq hits
system.cpu.dcache.ReadReq_misses::.cpu.data          420                       # number of ReadReq misses
system.cpu.dcache.ReadReq_misses::total           420                       # number of ReadReq misses
system.cpu.dcache.ReadReq_miss_latency::.cpu.data     30315000                       # number of ReadReq miss cycles
system.cpu.dcache.ReadReq_miss_latency::total     30315000                       # number of ReadReq miss cycles
system.cpu.dcache.ReadReq_accesses::.cpu.data      2044110                       # number of ReadReq accesses(hits+misses)
system.cpu.dcache.ReadReq_accesses::total      2044110                       # number of ReadReq accesses(hits+misses)
system.cpu.dcache.ReadReq_miss_rate::.cpu.data     0.000205                       # miss rate for ReadReq accesses
system.cpu.dcache.ReadReq_miss_rate::total     0.000205                       # miss rate for ReadReq accesses
system.cpu.dcache.ReadReq_avg_miss_latency::.cpu.data 72178.571429                       # average ReadReq miss latency
system.cpu.dcache.ReadReq_avg_miss_latency::total 72178.571429                       # average ReadReq miss latency
system.cpu.dcache.ReadReq_mshr_hits::.cpu.data           22                       # number of ReadReq MSHR hits
system.cpu.dcache.ReadReq_mshr_hits::total           22                       # number of ReadReq MSHR hits
system.cpu.dcache.ReadReq_mshr_misses::.cpu.data          398                       # number of ReadReq MSHR misses
system.cpu.dcache.ReadReq_mshr_misses::total          398                       # number of ReadReq MSHR misses
system.cpu.dcache.ReadReq_mshr_miss_latency::.cpu.data     27560000                       # number of ReadReq MSHR miss cycles
system.cpu.dcache.ReadReq_mshr_miss_latency::total     27560000                       # number of ReadReq MSHR miss cycles
system.cpu.dcache.ReadReq_mshr_miss_rate::.cpu.data     0.000195                       # mshr miss rate for ReadReq accesses
system.cpu.dcache.ReadReq_mshr_miss_rate::total     0.000195                       # mshr miss rate for ReadReq accesses
system.cpu.dcache.ReadReq_avg_mshr_miss_latency::.cpu.data 69246.231156                       # average ReadReq mshr miss latency
system.cpu.dcache.ReadReq_avg_mshr_miss_latency::total 69246.231156                       # average ReadReq mshr miss latency
system.cpu.dcache.WriteReq_hits::.cpu.data     79074584                       # number of WriteReq hits
system.cpu.dcache.WriteReq_hits::total       79074584                       # number of WriteReq hits
system.cpu.dcache.WriteReq_misses::.cpu.data      5262005                       # number of WriteReq misses
system.cpu.dcache.WriteReq_misses::total      5262005                       # number of WriteReq misses
system.cpu.dcache.WriteReq_miss_latency::.cpu.data 634423829000                       # number of WriteReq miss cycles
system.cpu.dcache.WriteReq_miss_latency::total 634423829000                       # number of WriteReq miss cycles
system.cpu.dcache.WriteReq_accesses::.cpu.data     84336589                       # number of WriteReq accesses(hits+misses)
system.cpu.dcache.WriteReq_accesses::total     84336589                       # number of WriteReq accesses(hits+misses)
system.cpu.dcache.WriteReq_miss_rate::.cpu.data     0.062393                       # miss rate for WriteReq accesses
system.cpu.dcache.WriteReq_miss_rate::total     0.062393                       # miss rate for WriteReq accesses
system.cpu.dcache.WriteReq_avg_miss_latency::.cpu.data 120566.937698                       # average WriteReq miss latency
system.cpu.dcache.WriteReq_avg_miss_latency::total 120566.937698                       # average WriteReq miss latency
system.cpu.dcache.WriteReq_mshr_hits::.cpu.data      2630225                       # number of WriteReq MSHR hits
system.cpu.dcache.WriteReq_mshr_hits::total      2630225                       # number of WriteReq MSHR hits
system.cpu.dcache.WriteReq_mshr_misses::.cpu.data      2631780                       # number of WriteReq MSHR misses
system.cpu.dcache.WriteReq_mshr_misses::total      2631780                       # number of WriteReq MSHR misses
system.cpu.dcache.WriteReq_mshr_miss_latency::.cpu.data 308089799000                       # number of WriteReq MSHR miss cycles
system.cpu.dcache.WriteReq_mshr_miss_latency::total 308089799000                       # number of WriteReq MSHR miss cycles
system.cpu.dcache.WriteReq_mshr_miss_rate::.cpu.data     0.031206                       # mshr miss rate for WriteReq accesses
system.cpu.dcache.WriteReq_mshr_miss_rate::total     0.031206                       # mshr miss rate for WriteReq accesses
system.cpu.dcache.WriteReq_avg_mshr_miss_latency::.cpu.data 117065.179840                       # average WriteReq mshr miss latency
system.cpu.dcache.WriteReq_avg_mshr_miss_latency::total 117065.179840                       # average WriteReq mshr miss latency
system.cpu.dcache.SoftPFReq_hits::.cpu.data           43                       # number of SoftPFReq hits
system.cpu.dcache.SoftPFReq_hits::total            43                       # number of SoftPFReq hits
system.cpu.dcache.SoftPFReq_misses::.cpu.data           28                       # number of SoftPFReq misses
system.cpu.dcache.SoftPFReq_misses::total           28                       # number of SoftPFReq misses
system.cpu.dcache.SoftPFReq_accesses::.cpu.data           71                       # number of SoftPFReq accesses(hits+misses)
system.cpu.dcache.SoftPFReq_accesses::total           71                       # number of SoftPFReq accesses(hits+misses)
system.cpu.dcache.SoftPFReq_miss_rate::.cpu.data     0.394366                       # miss rate for SoftPFReq accesses
system.cpu.dcache.SoftPFReq_miss_rate::total     0.394366                       # miss rate for SoftPFReq accesses
system.cpu.dcache.SoftPFReq_mshr_misses::.cpu.data           18                       # number of SoftPFReq MSHR misses
system.cpu.dcache.SoftPFReq_mshr_misses::total           18                       # number of SoftPFReq MSHR misses
system.cpu.dcache.SoftPFReq_mshr_miss_latency::.cpu.data      2442000                       # number of SoftPFReq MSHR miss cycles
system.cpu.dcache.SoftPFReq_mshr_miss_latency::total      2442000                       # number of SoftPFReq MSHR miss cycles
system.cpu.dcache.SoftPFReq_mshr_miss_rate::.cpu.data     0.253521                       # mshr miss rate for SoftPFReq accesses
system.cpu.dcache.SoftPFReq_mshr_miss_rate::total     0.253521                       # mshr miss rate for SoftPFReq accesses
system.cpu.dcache.SoftPFReq_avg_mshr_miss_latency::.cpu.data 135666.666667                       # average SoftPFReq mshr miss latency
system.cpu.dcache.SoftPFReq_avg_mshr_miss_latency::total 135666.666667                       # average SoftPFReq mshr miss latency
system.cpu.dcache.LoadLockedReq_hits::.cpu.data           34                       # number of LoadLockedReq hits
system.cpu.dcache.LoadLockedReq_hits::total           34                       # number of LoadLockedReq hits
system.cpu.dcache.LoadLockedReq_accesses::.cpu.data           34                       # number of LoadLockedReq accesses(hits+misses)
system.cpu.dcache.LoadLockedReq_accesses::total           34                       # number of LoadLockedReq accesses(hits+misses)
system.cpu.dcache.StoreCondReq_hits::.cpu.data           34                       # number of StoreCondReq hits
system.cpu.dcache.StoreCondReq_hits::total           34                       # number of StoreCondReq hits
system.cpu.dcache.StoreCondReq_accesses::.cpu.data           34                       # number of StoreCondReq accesses(hits+misses)
system.cpu.dcache.StoreCondReq_accesses::total           34                       # number of StoreCondReq accesses(hits+misses)
system.cpu.dcache.power_state.pwrStateResidencyTicks::UNDEFINED 498367276000                       # Cumulative time (in ticks) in various power states
system.cpu.dcache.tags.tagsinuse           511.761655                       # Cycle average of tags in use
system.cpu.dcache.tags.total_refs            83750581                       # Total number of references to valid blocks.
system.cpu.dcache.tags.sampled_refs           2632196                       # Sample count of references to valid blocks.
system.cpu.dcache.tags.avg_refs             31.817760                       # Average number of references to valid blocks.
system.cpu.dcache.tags.warmup_cycle            233000                       # Cycle when the warmup percentage was hit.
system.cpu.dcache.tags.occ_blocks::.cpu.data   511.761655                       # Average occupied blocks per requestor
system.cpu.dcache.tags.occ_percent::.cpu.data     0.999534                       # Average percentage of cache occupancy
system.cpu.dcache.tags.occ_percent::total     0.999534                       # Average percentage of cache occupancy
system.cpu.dcache.tags.occ_task_id_blocks::1024          512                       # Occupied blocks per task id
system.cpu.dcache.tags.age_task_id_blocks_1024::0           52                       # Occupied blocks per task id
system.cpu.dcache.tags.age_task_id_blocks_1024::1          460                       # Occupied blocks per task id
system.cpu.dcache.tags.occ_task_id_percent::1024            1                       # Percentage of cache occupancy per task id
system.cpu.dcache.tags.tag_accesses         175393872                       # Number of tag accesses
system.cpu.dcache.tags.data_accesses        175393872                       # Number of data accesses
system.cpu.dcache.tags.power_state.pwrStateResidencyTicks::UNDEFINED 498367276000                       # Cumulative time (in ticks) in various power states
system.cpu.dtb.instHits                             0                       # ITB inst hits
system.cpu.dtb.instMisses                           0                       # ITB inst misses
system.cpu.dtb.readHits                             0                       # DTB read hits
system.cpu.dtb.readMisses                           0                       # DTB read misses
system.cpu.dtb.writeHits                            0                       # DTB write hits
system.cpu.dtb.writeMisses                          0                       # DTB write misses
system.cpu.dtb.inserts                              0                       # Number of times an entry is inserted into the TLB
system.cpu.dtb.flushTlb                             0                       # Number of times complete TLB was flushed
system.cpu.dtb.flushTlbMva                          0                       # Number of times TLB was flushed by MVA
system.cpu.dtb.flushTlbMvaAsid                      0                       # Number of times TLB was flushed by MVA & ASID
system.cpu.dtb.flushTlbAsid                         0                       # Number of times TLB was flushed by ASID
system.cpu.dtb.flushedEntries                       0                       # Number of entries that have been flushed from TLB
system.cpu.dtb.alignFaults                          0                       # Number of TLB faults due to alignment restrictions
system.cpu.dtb.prefetchFaults                       0                       # Number of TLB faults due to prefetch
system.cpu.dtb.domainFaults                         0                       # Number of TLB faults due to domain restrictions
system.cpu.dtb.permsFaults                          0                       # Number of TLB faults due to permissions restrictions
system.cpu.dtb.readAccesses                         0                       # DTB read accesses
system.cpu.dtb.writeAccesses                        0                       # DTB write accesses
system.cpu.dtb.instAccesses                         0                       # ITB inst accesses
system.cpu.dtb.hits                                 0                       # Total TLB (inst and data) hits
system.cpu.dtb.misses                               0                       # Total TLB (inst and data) misses
system.cpu.dtb.accesses                             0                       # Total TLB (inst and data) accesses
system.cpu.dtb.stage2_mmu.stage2_tlb.instHits            0                       # ITB inst hits
system.cpu.dtb.stage2_mmu.stage2_tlb.instMisses            0                       # ITB inst misses
system.cpu.dtb.stage2_mmu.stage2_tlb.readHits            0                       # DTB read hits
system.cpu.dtb.stage2_mmu.stage2_tlb.readMisses            0                       # DTB read misses
system.cpu.dtb.stage2_mmu.stage2_tlb.writeHits            0                       # DTB write hits
system.cpu.dtb.stage2_mmu.stage2_tlb.writeMisses            0                       # DTB write misses
system.cpu.dtb.stage2_mmu.stage2_tlb.inserts            0                       # Number of times an entry is inserted into the TLB
system.cpu.dtb.stage2_mmu.stage2_tlb.flushTlb            0                       # Number of times complete TLB was flushed
system.cpu.dtb.stage2_mmu.stage2_tlb.flushTlbMva            0                       # Number of times TLB was flushed by MVA
system.cpu.dtb.stage2_mmu.stage2_tlb.flushTlbMvaAsid            0                       # Number of times TLB was flushed by MVA & ASID
system.cpu.dtb.stage2_mmu.stage2_tlb.flushTlbAsid            0                       # Number of times TLB was flushed by ASID
system.cpu.dtb.stage2_mmu.stage2_tlb.flushedEntries            0                       # Number of entries that have been flushed from TLB
system.cpu.dtb.stage2_mmu.stage2_tlb.alignFaults            0                       # Number of TLB faults due to alignment restrictions
system.cpu.dtb.stage2_mmu.stage2_tlb.prefetchFaults            0                       # Number of TLB faults due to prefetch
system.cpu.dtb.stage2_mmu.stage2_tlb.domainFaults            0                       # Number of TLB faults due to domain restrictions
system.cpu.dtb.stage2_mmu.stage2_tlb.permsFaults            0                       # Number of TLB faults due to permissions restrictions
system.cpu.dtb.stage2_mmu.stage2_tlb.readAccesses            0                       # DTB read accesses
system.cpu.dtb.stage2_mmu.stage2_tlb.writeAccesses            0                       # DTB write accesses
system.cpu.dtb.stage2_mmu.stage2_tlb.instAccesses            0                       # ITB inst accesses
system.cpu.dtb.stage2_mmu.stage2_tlb.hits            0                       # Total TLB (inst and data) hits
system.cpu.dtb.stage2_mmu.stage2_tlb.misses            0                       # Total TLB (inst and data) misses
system.cpu.dtb.stage2_mmu.stage2_tlb.accesses            0                       # Total TLB (inst and data) accesses
system.cpu.dtb.stage2_mmu.stage2_tlb.walker.walks            0                       # Table walker walks requested
system.cpu.dtb.stage2_mmu.stage2_tlb.walker.requestOrigin_Requested::Data            0                       # Table walker requests started/completed, data/inst
system.cpu.dtb.stage2_mmu.stage2_tlb.walker.requestOrigin_Requested::Inst            0                       # Table walker requests started/completed, data/inst
system.cpu.dtb.stage2_mmu.stage2_tlb.walker.requestOrigin_Requested::total            0                       # Table walker requests started/completed, data/inst
system.cpu.dtb.stage2_mmu.stage2_tlb.walker.requestOrigin_Completed::Data            0                       # Table walker requests started/completed, data/inst
system.cpu.dtb.stage2_mmu.stage2_tlb.walker.requestOrigin_Completed::Inst            0                       # Table walker requests started/completed, data/inst
system.cpu.dtb.stage2_mmu.stage2_tlb.walker.requestOrigin_Completed::total            0                       # Table walker requests started/completed, data/inst
system.cpu.dtb.stage2_mmu.stage2_tlb.walker.requestOrigin::total            0                       # Table walker requests started/completed, data/inst
system.cpu.dtb.stage2_mmu.stage2_tlb.walker.power_state.pwrStateResidencyTicks::UNDEFINED 498367276000                       # Cumulative time (in ticks) in various power states
system.cpu.dtb.walker.walks                         0                       # Table walker walks requested
system.cpu.dtb.walker.requestOrigin_Requested::Data            0                       # Table walker requests started/completed, data/inst
system.cpu.dtb.walker.requestOrigin_Requested::Inst            0                       # Table walker requests started/completed, data/inst
system.cpu.dtb.walker.requestOrigin_Requested::total            0                       # Table walker requests started/completed, data/inst
system.cpu.dtb.walker.requestOrigin_Completed::Data            0                       # Table walker requests started/completed, data/inst
system.cpu.dtb.walker.requestOrigin_Completed::Inst            0                       # Table walker requests started/completed, data/inst
system.cpu.dtb.walker.requestOrigin_Completed::total            0                       # Table walker requests started/completed, data/inst
system.cpu.dtb.walker.requestOrigin::total            0                       # Table walker requests started/completed, data/inst
system.cpu.dtb.walker.power_state.pwrStateResidencyTicks::UNDEFINED 498367276000                       # Cumulative time (in ticks) in various power states
system.cpu.fetch2.intInstructions            45071091                       # Number of integer instructions successfully decoded
system.cpu.fetch2.fpInstructions                    0                       # Number of floating point instructions successfully decoded
system.cpu.fetch2.vecInstructions                   0                       # Number of SIMD instructions successfully decoded
system.cpu.fetch2.loadInstructions            2086513                       # Number of memory load instructions successfully decoded
system.cpu.fetch2.storeInstructions            169172                       # Number of memory store instructions successfully decoded
system.cpu.fetch2.amoInstructions                   0                       # Number of memory atomic instructions successfully decoded
system.cpu.icache.demand_hits::.cpu.inst     32043581                       # number of demand (read+write) hits
system.cpu.icache.demand_hits::total         32043581                       # number of demand (read+write) hits
system.cpu.icache.overall_hits::.cpu.inst     32043581                       # number of overall hits
system.cpu.icache.overall_hits::total        32043581                       # number of overall hits
system.cpu.icache.demand_misses::.cpu.inst          399                       # number of demand (read+write) misses
system.cpu.icache.demand_misses::total            399                       # number of demand (read+write) misses
system.cpu.icache.overall_misses::.cpu.inst          399                       # number of overall misses
system.cpu.icache.overall_misses::total           399                       # number of overall misses
system.cpu.icache.demand_miss_latency::.cpu.inst     43152000                       # number of demand (read+write) miss cycles
system.cpu.icache.demand_miss_latency::total     43152000                       # number of demand (read+write) miss cycles
system.cpu.icache.overall_miss_latency::.cpu.inst     43152000                       # number of overall miss cycles
system.cpu.icache.overall_miss_latency::total     43152000                       # number of overall miss cycles
system.cpu.icache.demand_accesses::.cpu.inst     32043980                       # number of demand (read+write) accesses
system.cpu.icache.demand_accesses::total     32043980                       # number of demand (read+write) accesses
system.cpu.icache.overall_accesses::.cpu.inst     32043980                       # number of overall (read+write) accesses
system.cpu.icache.overall_accesses::total     32043980                       # number of overall (read+write) accesses
system.cpu.icache.demand_miss_rate::.cpu.inst     0.000012                       # miss rate for demand accesses
system.cpu.icache.demand_miss_rate::total     0.000012                       # miss rate for demand accesses
system.cpu.icache.overall_miss_rate::.cpu.inst     0.000012                       # miss rate for overall accesses
system.cpu.icache.overall_miss_rate::total     0.000012                       # miss rate for overall accesses
system.cpu.icache.demand_avg_miss_latency::.cpu.inst 108150.375940                       # average overall miss latency
system.cpu.icache.demand_avg_miss_latency::total 108150.375940                       # average overall miss latency
system.cpu.icache.overall_avg_miss_latency::.cpu.inst 108150.375940                       # average overall miss latency
system.cpu.icache.overall_avg_miss_latency::total 108150.375940                       # average overall miss latency
system.cpu.icache.blocked_cycles::no_mshrs            0                       # number of cycles access was blocked
system.cpu.icache.blocked_cycles::no_targets            0                       # number of cycles access was blocked
system.cpu.icache.blocked::no_mshrs                 0                       # number of cycles access was blocked
system.cpu.icache.blocked::no_targets               0                       # number of cycles access was blocked
system.cpu.icache.avg_blocked_cycles::no_mshrs          nan                       # average number of cycles each access was blocked
system.cpu.icache.avg_blocked_cycles::no_targets          nan                       # average number of cycles each access was blocked
system.cpu.icache.writebacks::.writebacks            2                       # number of writebacks
system.cpu.icache.writebacks::total                 2                       # number of writebacks
system.cpu.icache.demand_mshr_misses::.cpu.inst          399                       # number of demand (read+write) MSHR misses
system.cpu.icache.demand_mshr_misses::total          399                       # number of demand (read+write) MSHR misses
system.cpu.icache.overall_mshr_misses::.cpu.inst          399                       # number of overall MSHR misses
system.cpu.icache.overall_mshr_misses::total          399                       # number of overall MSHR misses
system.cpu.icache.demand_mshr_miss_latency::.cpu.inst     42354000                       # number of demand (read+write) MSHR miss cycles
system.cpu.icache.demand_mshr_miss_latency::total     42354000                       # number of demand (read+write) MSHR miss cycles
system.cpu.icache.overall_mshr_miss_latency::.cpu.inst     42354000                       # number of overall MSHR miss cycles
system.cpu.icache.overall_mshr_miss_latency::total     42354000                       # number of overall MSHR miss cycles
system.cpu.icache.demand_mshr_miss_rate::.cpu.inst     0.000012                       # mshr miss rate for demand accesses
system.cpu.icache.demand_mshr_miss_rate::total     0.000012                       # mshr miss rate for demand accesses
system.cpu.icache.overall_mshr_miss_rate::.cpu.inst     0.000012                       # mshr miss rate for overall accesses
system.cpu.icache.overall_mshr_miss_rate::total     0.000012                       # mshr miss rate for overall accesses
system.cpu.icache.demand_avg_mshr_miss_latency::.cpu.inst 106150.375940                       # average overall mshr miss latency
system.cpu.icache.demand_avg_mshr_miss_latency::total 106150.375940                       # average overall mshr miss latency
system.cpu.icache.overall_avg_mshr_miss_latency::.cpu.inst 106150.375940                       # average overall mshr miss latency
system.cpu.icache.overall_avg_mshr_miss_latency::total 106150.375940                       # average overall mshr miss latency
system.cpu.icache.replacements                      2                       # number of replacements
system.cpu.icache.ReadReq_hits::.cpu.inst     32043581                       # number of ReadReq hits
system.cpu.icache.ReadReq_hits::total        32043581                       # number of ReadReq hits
system.cpu.icache.ReadReq_misses::.cpu.inst          399                       # number of ReadReq misses
system.cpu.icache.ReadReq_misses::total           399                       # number of ReadReq misses
system.cpu.icache.ReadReq_miss_latency::.cpu.inst     43152000                       # number of ReadReq miss cycles
system.cpu.icache.ReadReq_miss_latency::total     43152000                       # number of ReadReq miss cycles
system.cpu.icache.ReadReq_accesses::.cpu.inst     32043980                       # number of ReadReq accesses(hits+misses)
system.cpu.icache.ReadReq_accesses::total     32043980                       # number of ReadReq accesses(hits+misses)
system.cpu.icache.ReadReq_miss_rate::.cpu.inst     0.000012                       # miss rate for ReadReq accesses
system.cpu.icache.ReadReq_miss_rate::total     0.000012                       # miss rate for ReadReq accesses
system.cpu.icache.ReadReq_avg_miss_latency::.cpu.inst 108150.375940                       # average ReadReq miss latency
system.cpu.icache.ReadReq_avg_miss_latency::total 108150.375940                       # average ReadReq miss latency
system.cpu.icache.ReadReq_mshr_misses::.cpu.inst          399                       # number of ReadReq MSHR misses
system.cpu.icache.ReadReq_mshr_misses::total          399                       # number of ReadReq MSHR misses
system.cpu.icache.ReadReq_mshr_miss_latency::.cpu.inst     42354000                       # number of ReadReq MSHR miss cycles
system.cpu.icache.ReadReq_mshr_miss_latency::total     42354000                       # number of ReadReq MSHR miss cycles
system.cpu.icache.ReadReq_mshr_miss_rate::.cpu.inst     0.000012                       # mshr miss rate for ReadReq accesses
system.cpu.icache.ReadReq_mshr_miss_rate::total     0.000012                       # mshr miss rate for ReadReq accesses
system.cpu.icache.ReadReq_avg_mshr_miss_latency::.cpu.inst 106150.375940                       # average ReadReq mshr miss latency
system.cpu.icache.ReadReq_avg_mshr_miss_latency::total 106150.375940                       # average ReadReq mshr miss latency
system.cpu.icache.power_state.pwrStateResidencyTicks::UNDEFINED 498367276000                       # Cumulative time (in ticks) in various power states
system.cpu.icache.tags.tagsinuse           336.547998                       # Cycle average of tags in use
system.cpu.icache.tags.total_refs            32043980                       # Total number of references to valid blocks.
system.cpu.icache.tags.sampled_refs               399                       # Sample count of references to valid blocks.
system.cpu.icache.tags.avg_refs          80310.726817                       # Average number of references to valid blocks.
system.cpu.icache.tags.warmup_cycle            113000                       # Cycle when the warmup percentage was hit.
system.cpu.icache.tags.occ_blocks::.cpu.inst   336.547998                       # Average occupied blocks per requestor
system.cpu.icache.tags.occ_percent::.cpu.inst     0.328660                       # Average percentage of cache occupancy
system.cpu.icache.tags.occ_percent::total     0.328660                       # Average percentage of cache occupancy
system.cpu.icache.tags.occ_task_id_blocks::1024          397                       # Occupied blocks per task id
system.cpu.icache.tags.age_task_id_blocks_1024::4          397                       # Occupied blocks per task id
system.cpu.icache.tags.occ_task_id_percent::1024     0.387695                       # Percentage of cache occupancy per task id
system.cpu.icache.tags.tag_accesses          64088359                       # Number of tag accesses
system.cpu.icache.tags.data_accesses         64088359                       # Number of data accesses
system.cpu.icache.tags.power_state.pwrStateResidencyTicks::UNDEFINED 498367276000                       # Cumulative time (in ticks) in various power states
system.cpu.itb.instHits                             0                       # ITB inst hits
system.cpu.itb.instMisses                           0                       # ITB inst misses
system.cpu.itb.readHits                             0                       # DTB read hits
system.cpu.itb.readMisses                           0                       # DTB read misses
system.cpu.itb.writeHits                            0                       # DTB write hits
system.cpu.itb.writeMisses                          0                       # DTB write misses
system.cpu.itb.inserts                              0                       # Number of times an entry is inserted into the TLB
system.cpu.itb.flushTlb                             0                       # Number of times complete TLB was flushed
system.cpu.itb.flushTlbMva                          0                       # Number of times TLB was flushed by MVA
system.cpu.itb.flushTlbMvaAsid                      0                       # Number of times TLB was flushed by MVA & ASID
system.cpu.itb.flushTlbAsid                         0                       # Number of times TLB was flushed by ASID
system.cpu.itb.flushedEntries                       0                       # Number of entries that have been flushed from TLB
system.cpu.itb.alignFaults                          0                       # Number of TLB faults due to alignment restrictions
system.cpu.itb.prefetchFaults                       0                       # Number of TLB faults due to prefetch
system.cpu.itb.domainFaults                         0                       # Number of TLB faults due to domain restrictions
system.cpu.itb.permsFaults                          0                       # Number of TLB faults due to permissions restrictions
system.cpu.itb.readAccesses                         0                       # DTB read accesses
system.cpu.itb.writeAccesses                        0                       # DTB write accesses
system.cpu.itb.instAccesses                         0                       # ITB inst accesses
system.cpu.itb.hits                                 0                       # Total TLB (inst and data) hits
system.cpu.itb.misses                               0                       # Total TLB (inst and data) misses
system.cpu.itb.accesses                             0                       # Total TLB (inst and data) accesses
system.cpu.itb.stage2_mmu.stage2_tlb.instHits            0                       # ITB inst hits
system.cpu.itb.stage2_mmu.stage2_tlb.instMisses            0                       # ITB inst misses
system.cpu.itb.stage2_mmu.stage2_tlb.readHits            0                       # DTB read hits
system.cpu.itb.stage2_mmu.stage2_tlb.readMisses            0                       # DTB read misses
system.cpu.itb.stage2_mmu.stage2_tlb.writeHits            0                       # DTB write hits
system.cpu.itb.stage2_mmu.stage2_tlb.writeMisses            0                       # DTB write misses
system.cpu.itb.stage2_mmu.stage2_tlb.inserts            0                       # Number of times an entry is inserted into the TLB
system.cpu.itb.stage2_mmu.stage2_tlb.flushTlb            0                       # Number of times complete TLB was flushed
system.cpu.itb.stage2_mmu.stage2_tlb.flushTlbMva            0                       # Number of times TLB was flushed by MVA
system.cpu.itb.stage2_mmu.stage2_tlb.flushTlbMvaAsid            0                       # Number of times TLB was flushed by MVA & ASID
system.cpu.itb.stage2_mmu.stage2_tlb.flushTlbAsid            0                       # Number of times TLB was flushed by ASID
system.cpu.itb.stage2_mmu.stage2_tlb.flushedEntries            0                       # Number of entries that have been flushed from TLB
system.cpu.itb.stage2_mmu.stage2_tlb.alignFaults            0                       # Number of TLB faults due to alignment restrictions
system.cpu.itb.stage2_mmu.stage2_tlb.prefetchFaults            0                       # Number of TLB faults due to prefetch
system.cpu.itb.stage2_mmu.stage2_tlb.domainFaults            0                       # Number of TLB faults due to domain restrictions
system.cpu.itb.stage2_mmu.stage2_tlb.permsFaults            0                       # Number of TLB faults due to permissions restrictions
system.cpu.itb.stage2_mmu.stage2_tlb.readAccesses            0                       # DTB read accesses
system.cpu.itb.stage2_mmu.stage2_tlb.writeAccesses            0                       # DTB write accesses
system.cpu.itb.stage2_mmu.stage2_tlb.instAccesses            0                       # ITB inst accesses
system.cpu.itb.stage2_mmu.stage2_tlb.hits            0                       # Total TLB (inst and data) hits
system.cpu.itb.stage2_mmu.stage2_tlb.misses            0                       # Total TLB (inst and data) misses
system.cpu.itb.stage2_mmu.stage2_tlb.accesses            0                       # Total TLB (inst and data) accesses
system.cpu.itb.stage2_mmu.stage2_tlb.walker.walks            0                       # Table walker walks requested
system.cpu.itb.stage2_mmu.stage2_tlb.walker.requestOrigin_Requested::Data            0                       # Table walker requests started/completed, data/inst
system.cpu.itb.stage2_mmu.stage2_tlb.walker.requestOrigin_Requested::Inst            0                       # Table walker requests started/completed, data/inst
system.cpu.itb.stage2_mmu.stage2_tlb.walker.requestOrigin_Requested::total            0                       # Table walker requests started/completed, data/inst
system.cpu.itb.stage2_mmu.stage2_tlb.walker.requestOrigin_Completed::Data            0                       # Table walker requests started/completed, data/inst
system.cpu.itb.stage2_mmu.stage2_tlb.walker.requestOrigin_Completed::Inst            0                       # Table walker requests started/completed, data/inst
system.cpu.itb.stage2_mmu.stage2_tlb.walker.requestOrigin_Completed::total            0                       # Table walker requests started/completed, data/inst
system.cpu.itb.stage2_mmu.stage2_tlb.walker.requestOrigin::total            0                       # Table walker requests started/completed, data/inst
system.cpu.itb.stage2_mmu.stage2_tlb.walker.power_state.pwrStateResidencyTicks::UNDEFINED 498367276000                       # Cumulative time (in ticks) in various power states
system.cpu.itb.walker.walks                         0                       # Table walker walks requested
system.cpu.itb.walker.requestOrigin_Requested::Data            0                       # Table walker requests started/completed, data/inst
system.cpu.itb.walker.requestOrigin_Requested::Inst            0                       # Table walker requests started/completed, data/inst
system.cpu.itb.walker.requestOrigin_Requested::total            0                       # Table walker requests started/completed, data/inst
system.cpu.itb.walker.requestOrigin_Completed::Data            0                       # Table walker requests started/completed, data/inst
system.cpu.itb.walker.requestOrigin_Completed::Inst            0                       # Table walker requests started/completed, data/inst
system.cpu.itb.walker.requestOrigin_Completed::total            0                       # Table walker requests started/completed, data/inst
system.cpu.itb.walker.requestOrigin::total            0                       # Table walker requests started/completed, data/inst
system.cpu.itb.walker.power_state.pwrStateResidencyTicks::UNDEFINED 498367276000                       # Cumulative time (in ticks) in various power states
system.cpu.power_state.pwrStateResidencyTicks::ON 498367276000                       # Cumulative time (in ticks) in various power states
system.cpu.thread_0.numInsts                100000001                       # Number of Instructions committed
system.cpu.thread_0.numOps                  184218798                       # Number of Ops committed
system.cpu.thread_0.numMemRefs                      0                       # Number of Memory References
system.cpu_clk_domain.clock                      1000                       # Clock period in ticks
system.cpu_voltage_domain.voltage                   1                       # Voltage in Volts
system.l2.demand_hits::.cpu.inst                   16                       # number of demand (read+write) hits
system.l2.demand_hits::.cpu.data                  380                       # number of demand (read+write) hits
system.l2.demand_hits::total                      396                       # number of demand (read+write) hits
system.l2.overall_hits::.cpu.inst                  16                       # number of overall hits
system.l2.overall_hits::.cpu.data                 380                       # number of overall hits
system.l2.overall_hits::total                     396                       # number of overall hits
system.l2.demand_misses::.cpu.inst                383                       # number of demand (read+write) misses
system.l2.demand_misses::.cpu.data            2631816                       # number of demand (read+write) misses
system.l2.demand_misses::total                2632199                       # number of demand (read+write) misses
system.l2.overall_misses::.cpu.inst               383                       # number of overall misses
system.l2.overall_misses::.cpu.data           2631816                       # number of overall misses
system.l2.overall_misses::total               2632199                       # number of overall misses
system.l2.demand_miss_latency::.cpu.inst     40778000                       # number of demand (read+write) miss cycles
system.l2.demand_miss_latency::.cpu.data 300215069000                       # number of demand (read+write) miss cycles
system.l2.demand_miss_latency::total     300255847000                       # number of demand (read+write) miss cycles
system.l2.overall_miss_latency::.cpu.inst     40778000                       # number of overall miss cycles
system.l2.overall_miss_latency::.cpu.data 300215069000                       # number of overall miss cycles
system.l2.overall_miss_latency::total    300255847000                       # number of overall miss cycles
system.l2.demand_accesses::.cpu.inst              399                       # number of demand (read+write) accesses
system.l2.demand_accesses::.cpu.data          2632196                       # number of demand (read+write) accesses
system.l2.demand_accesses::total              2632595                       # number of demand (read+write) accesses
system.l2.overall_accesses::.cpu.inst             399                       # number of overall (read+write) accesses
system.l2.overall_accesses::.cpu.data         2632196                       # number of overall (read+write) accesses
system.l2.overall_accesses::total             2632595                       # number of overall (read+write) accesses
system.l2.demand_miss_rate::.cpu.inst        0.959900                       # miss rate for demand accesses
system.l2.demand_miss_rate::.cpu.data        0.999856                       # miss rate for demand accesses
system.l2.demand_miss_rate::total            0.999850                       # miss rate for demand accesses
system.l2.overall_miss_rate::.cpu.inst       0.959900                       # miss rate for overall accesses
system.l2.overall_miss_rate::.cpu.data       0.999856                       # miss rate for overall accesses
system.l2.overall_miss_rate::total           0.999850                       # miss rate for overall accesses
system.l2.demand_avg_miss_latency::.cpu.inst 106469.973890                       # average overall miss latency
system.l2.demand_avg_miss_latency::.cpu.data 114071.450664                       # average overall miss latency
system.l2.demand_avg_miss_latency::total 114070.344605                       # average overall miss latency
system.l2.overall_avg_miss_latency::.cpu.inst 106469.973890                       # average overall miss latency
system.l2.overall_avg_miss_latency::.cpu.data 114071.450664                       # average overall miss latency
system.l2.overall_avg_miss_latency::total 114070.344605                       # average overall miss latency
system.l2.blocked_cycles::no_mshrs                  0                       # number of cycles access was blocked
system.l2.blocked_cycles::no_targets                0                       # number of cycles access was blocked
system.l2.blocked::no_mshrs                         0                       # number of cycles access was blocked
system.l2.blocked::no_targets                       0                       # number of cycles access was blocked
system.l2.avg_blocked_cycles::no_mshrs            nan                       # average number of cycles each access was blocked
system.l2.avg_blocked_cycles::no_targets          nan                       # average number of cycles each access was blocked
system.l2.writebacks::.writebacks             2598860                       # number of writebacks
system.l2.writebacks::total                   2598860                       # number of writebacks
system.l2.demand_mshr_hits::.cpu.inst               1                       # number of demand (read+write) MSHR hits
system.l2.demand_mshr_hits::.cpu.data               8                       # number of demand (read+write) MSHR hits
system.l2.demand_mshr_hits::total                   9                       # number of demand (read+write) MSHR hits
system.l2.overall_mshr_hits::.cpu.inst              1                       # number of overall MSHR hits
system.l2.overall_mshr_hits::.cpu.data              8                       # number of overall MSHR hits
system.l2.overall_mshr_hits::total                  9                       # number of overall MSHR hits
system.l2.demand_mshr_misses::.cpu.inst           382                       # number of demand (read+write) MSHR misses
system.l2.demand_mshr_misses::.cpu.data       2631808                       # number of demand (read+write) MSHR misses
system.l2.demand_mshr_misses::total           2632190                       # number of demand (read+write) MSHR misses
system.l2.overall_mshr_misses::.cpu.inst          382                       # number of overall MSHR misses
system.l2.overall_mshr_misses::.cpu.data      2631808                       # number of overall MSHR misses
system.l2.overall_mshr_misses::total          2632190                       # number of overall MSHR misses
system.l2.demand_mshr_miss_latency::.cpu.inst     33044000                       # number of demand (read+write) MSHR miss cycles
system.l2.demand_mshr_miss_latency::.cpu.data 247578268000                       # number of demand (read+write) MSHR miss cycles
system.l2.demand_mshr_miss_latency::total 247611312000                       # number of demand (read+write) MSHR miss cycles
system.l2.overall_mshr_miss_latency::.cpu.inst     33044000                       # number of overall MSHR miss cycles
system.l2.overall_mshr_miss_latency::.cpu.data 247578268000                       # number of overall MSHR miss cycles
system.l2.overall_mshr_miss_latency::total 247611312000                       # number of overall MSHR miss cycles
system.l2.demand_mshr_miss_rate::.cpu.inst     0.957393                       # mshr miss rate for demand accesses
system.l2.demand_mshr_miss_rate::.cpu.data     0.999853                       # mshr miss rate for demand accesses
system.l2.demand_mshr_miss_rate::total       0.999846                       # mshr miss rate for demand accesses
system.l2.overall_mshr_miss_rate::.cpu.inst     0.957393                       # mshr miss rate for overall accesses
system.l2.overall_mshr_miss_rate::.cpu.data     0.999853                       # mshr miss rate for overall accesses
system.l2.overall_mshr_miss_rate::total      0.999846                       # mshr miss rate for overall accesses
system.l2.demand_avg_mshr_miss_latency::.cpu.inst 86502.617801                       # average overall mshr miss latency
system.l2.demand_avg_mshr_miss_latency::.cpu.data 94071.553852                       # average overall mshr miss latency
system.l2.demand_avg_mshr_miss_latency::total 94070.455400                       # average overall mshr miss latency
system.l2.overall_avg_mshr_miss_latency::.cpu.inst 86502.617801                       # average overall mshr miss latency
system.l2.overall_avg_mshr_miss_latency::.cpu.data 94071.553852                       # average overall mshr miss latency
system.l2.overall_avg_mshr_miss_latency::total 94070.455400                       # average overall mshr miss latency
system.l2.replacements                        2599422                       # number of replacements
system.l2.WritebackDirty_hits::.writebacks      2631301                       # number of WritebackDirty hits
system.l2.WritebackDirty_hits::total          2631301                       # number of WritebackDirty hits
system.l2.WritebackDirty_accesses::.writebacks      2631301                       # number of WritebackDirty accesses(hits+misses)
system.l2.WritebackDirty_accesses::total      2631301                       # number of WritebackDirty accesses(hits+misses)
system.l2.WritebackClean_hits::.writebacks            2                       # number of WritebackClean hits
system.l2.WritebackClean_hits::total                2                       # number of WritebackClean hits
system.l2.WritebackClean_accesses::.writebacks            2                       # number of WritebackClean accesses(hits+misses)
system.l2.WritebackClean_accesses::total            2                       # number of WritebackClean accesses(hits+misses)
system.l2.ReadExReq_hits::.cpu.data               174                       # number of ReadExReq hits
system.l2.ReadExReq_hits::total                   174                       # number of ReadExReq hits
system.l2.ReadExReq_misses::.cpu.data         2631606                       # number of ReadExReq misses
system.l2.ReadExReq_misses::total             2631606                       # number of ReadExReq misses
system.l2.ReadExReq_miss_latency::.cpu.data 300190796000                       # number of ReadExReq miss cycles
system.l2.ReadExReq_miss_latency::total  300190796000                       # number of ReadExReq miss cycles
system.l2.ReadExReq_accesses::.cpu.data       2631780                       # number of ReadExReq accesses(hits+misses)
system.l2.ReadExReq_accesses::total           2631780                       # number of ReadExReq accesses(hits+misses)
system.l2.ReadExReq_miss_rate::.cpu.data     0.999934                       # miss rate for ReadExReq accesses
system.l2.ReadExReq_miss_rate::total         0.999934                       # miss rate for ReadExReq accesses
system.l2.ReadExReq_avg_miss_latency::.cpu.data 114071.329827                       # average ReadExReq miss latency
system.l2.ReadExReq_avg_miss_latency::total 114071.329827                       # average ReadExReq miss latency
system.l2.ReadExReq_mshr_misses::.cpu.data      2631606                       # number of ReadExReq MSHR misses
system.l2.ReadExReq_mshr_misses::total        2631606                       # number of ReadExReq MSHR misses
system.l2.ReadExReq_mshr_miss_latency::.cpu.data 247558676000                       # number of ReadExReq MSHR miss cycles
system.l2.ReadExReq_mshr_miss_latency::total 247558676000                       # number of ReadExReq MSHR miss cycles
system.l2.ReadExReq_mshr_miss_rate::.cpu.data     0.999934                       # mshr miss rate for ReadExReq accesses
system.l2.ReadExReq_mshr_miss_rate::total     0.999934                       # mshr miss rate for ReadExReq accesses
system.l2.ReadExReq_avg_mshr_miss_latency::.cpu.data 94071.329827                       # average ReadExReq mshr miss latency
system.l2.ReadExReq_avg_mshr_miss_latency::total 94071.329827                       # average ReadExReq mshr miss latency
system.l2.ReadCleanReq_hits::.cpu.inst             16                       # number of ReadCleanReq hits
system.l2.ReadCleanReq_hits::total                 16                       # number of ReadCleanReq hits
system.l2.ReadCleanReq_misses::.cpu.inst          383                       # number of ReadCleanReq misses
system.l2.ReadCleanReq_misses::total              383                       # number of ReadCleanReq misses
system.l2.ReadCleanReq_miss_latency::.cpu.inst     40778000                       # number of ReadCleanReq miss cycles
system.l2.ReadCleanReq_miss_latency::total     40778000                       # number of ReadCleanReq miss cycles
system.l2.ReadCleanReq_accesses::.cpu.inst          399                       # number of ReadCleanReq accesses(hits+misses)
system.l2.ReadCleanReq_accesses::total            399                       # number of ReadCleanReq accesses(hits+misses)
system.l2.ReadCleanReq_miss_rate::.cpu.inst     0.959900                       # miss rate for ReadCleanReq accesses
system.l2.ReadCleanReq_miss_rate::total      0.959900                       # miss rate for ReadCleanReq accesses
system.l2.ReadCleanReq_avg_miss_latency::.cpu.inst 106469.973890                       # average ReadCleanReq miss latency
system.l2.ReadCleanReq_avg_miss_latency::total 106469.973890                       # average ReadCleanReq miss latency
system.l2.ReadCleanReq_mshr_hits::.cpu.inst            1                       # number of ReadCleanReq MSHR hits
system.l2.ReadCleanReq_mshr_hits::total             1                       # number of ReadCleanReq MSHR hits
system.l2.ReadCleanReq_mshr_misses::.cpu.inst          382                       # number of ReadCleanReq MSHR misses
system.l2.ReadCleanReq_mshr_misses::total          382                       # number of ReadCleanReq MSHR misses
system.l2.ReadCleanReq_mshr_miss_latency::.cpu.inst     33044000                       # number of ReadCleanReq MSHR miss cycles
system.l2.ReadCleanReq_mshr_miss_latency::total     33044000                       # number of ReadCleanReq MSHR miss cycles
system.l2.ReadCleanReq_mshr_miss_rate::.cpu.inst     0.957393                       # mshr miss rate for ReadCleanReq accesses
system.l2.ReadCleanReq_mshr_miss_rate::total     0.957393                       # mshr miss rate for ReadCleanReq accesses
system.l2.ReadCleanReq_avg_mshr_miss_latency::.cpu.inst 86502.617801                       # average ReadCleanReq mshr miss latency
system.l2.ReadCleanReq_avg_mshr_miss_latency::total 86502.617801                       # average ReadCleanReq mshr miss latency
system.l2.ReadSharedReq_hits::.cpu.data           206                       # number of ReadSharedReq hits
system.l2.ReadSharedReq_hits::total               206                       # number of ReadSharedReq hits
system.l2.ReadSharedReq_misses::.cpu.data          210                       # number of ReadSharedReq misses
system.l2.ReadSharedReq_misses::total             210                       # number of ReadSharedReq misses
system.l2.ReadSharedReq_miss_latency::.cpu.data     24273000                       # number of ReadSharedReq miss cycles
system.l2.ReadSharedReq_miss_latency::total     24273000                       # number of ReadSharedReq miss cycles
system.l2.ReadSharedReq_accesses::.cpu.data          416                       # number of ReadSharedReq accesses(hits+misses)
system.l2.ReadSharedReq_accesses::total           416                       # number of ReadSharedReq accesses(hits+misses)
system.l2.ReadSharedReq_miss_rate::.cpu.data     0.504808                       # miss rate for ReadSharedReq accesses
system.l2.ReadSharedReq_miss_rate::total     0.504808                       # miss rate for ReadSharedReq accesses
system.l2.ReadSharedReq_avg_miss_latency::.cpu.data 115585.714286                       # average ReadSharedReq miss latency
system.l2.ReadSharedReq_avg_miss_latency::total 115585.714286                       # average ReadSharedReq miss latency
system.l2.ReadSharedReq_mshr_hits::.cpu.data            8                       # number of ReadSharedReq MSHR hits
system.l2.ReadSharedReq_mshr_hits::total            8                       # number of ReadSharedReq MSHR hits
system.l2.ReadSharedReq_mshr_misses::.cpu.data          202                       # number of ReadSharedReq MSHR misses
system.l2.ReadSharedReq_mshr_misses::total          202                       # number of ReadSharedReq MSHR misses
system.l2.ReadSharedReq_mshr_miss_latency::.cpu.data     19592000                       # number of ReadSharedReq MSHR miss cycles
system.l2.ReadSharedReq_mshr_miss_latency::total     19592000                       # number of ReadSharedReq MSHR miss cycles
system.l2.ReadSharedReq_mshr_miss_rate::.cpu.data     0.485577                       # mshr miss rate for ReadSharedReq accesses
system.l2.ReadSharedReq_mshr_miss_rate::total     0.485577                       # mshr miss rate for ReadSharedReq accesses
system.l2.ReadSharedReq_avg_mshr_miss_latency::.cpu.data 96990.099010                       # average ReadSharedReq mshr miss latency
system.l2.ReadSharedReq_avg_mshr_miss_latency::total 96990.099010                       # average ReadSharedReq mshr miss latency
system.l2.power_state.pwrStateResidencyTicks::UNDEFINED 498367276000                       # Cumulative time (in ticks) in various power states
system.l2.tags.tagsinuse                 32216.930434                       # Cycle average of tags in use
system.l2.tags.total_refs                     5264211                       # Total number of references to valid blocks.
system.l2.tags.sampled_refs                   2632190                       # Sample count of references to valid blocks.
system.l2.tags.avg_refs                      1.999936                       # Average number of references to valid blocks.
system.l2.tags.warmup_cycle                     92000                       # Cycle when the warmup percentage was hit.
system.l2.tags.occ_blocks::.cpu.inst         4.137307                       # Average occupied blocks per requestor
system.l2.tags.occ_blocks::.cpu.data     32212.793127                       # Average occupied blocks per requestor
system.l2.tags.occ_percent::.cpu.inst        0.000126                       # Average percentage of cache occupancy
system.l2.tags.occ_percent::.cpu.data        0.983056                       # Average percentage of cache occupancy
system.l2.tags.occ_percent::total            0.983183                       # Average percentage of cache occupancy
system.l2.tags.occ_task_id_blocks::1024         32768                       # Occupied blocks per task id
system.l2.tags.age_task_id_blocks_1024::0           52                       # Occupied blocks per task id
system.l2.tags.age_task_id_blocks_1024::1          482                       # Occupied blocks per task id
system.l2.tags.age_task_id_blocks_1024::2         4816                       # Occupied blocks per task id
system.l2.tags.age_task_id_blocks_1024::3        27418                       # Occupied blocks per task id
system.l2.tags.occ_task_id_percent::1024            1                       # Percentage of cache occupancy per task id
system.l2.tags.tag_accesses                   7896410                       # Number of tag accesses
system.l2.tags.data_accesses                  7896410                       # Number of data accesses
system.l2.tags.power_state.pwrStateResidencyTicks::UNDEFINED 498367276000                       # Cumulative time (in ticks) in various power states
system.mem_ctrls.avgPriority_.writebacks::samples   5197720.00                       # Average QoS priority value for accepted requests
system.mem_ctrls.avgPriority_.cpu.inst::samples       764.00                       # Average QoS priority value for accepted requests
system.mem_ctrls.avgPriority_.cpu.data::samples   5263616.00                       # Average QoS priority value for accepted requests
system.mem_ctrls.priorityMinLatency      0.000000018750                       # per QoS priority minimum request to response latency (s)
system.mem_ctrls.priorityMaxLatency      0.005865720500                       # per QoS priority maximum request to response latency (s)
system.mem_ctrls.numReadWriteTurnArounds       289076                       # Number of turnarounds from READ to WRITE
system.mem_ctrls.numWriteReadTurnArounds       289076                       # Number of turnarounds from WRITE to READ
system.mem_ctrls.numStayReadState            10397927                       # Number of times bus staying in READ state
system.mem_ctrls.numStayWriteState            4921363                       # Number of times bus staying in WRITE state
system.mem_ctrls.readReqs                     2632190                       # Number of read requests accepted
system.mem_ctrls.writeReqs                    2598860                       # Number of write requests accepted
system.mem_ctrls.readBursts                   5264380                       # Number of controller read bursts, including those serviced by the write queue
system.mem_ctrls.writeBursts                  5197720                       # Number of controller write bursts, including those merged in the write queue
system.mem_ctrls.servicedByWrQ                      0                       # Number of controller read bursts serviced by the write queue
system.mem_ctrls.mergedWrBursts                     0                       # Number of controller write bursts merged with an existing one
system.mem_ctrls.neitherReadNorWriteReqs            0                       # Number of requests that are neither read nor write
system.mem_ctrls.avgRdQLen                       2.00                       # Average read queue length when enqueuing
system.mem_ctrls.avgWrQLen                      25.17                       # Average write queue length when enqueuing
system.mem_ctrls.numRdRetry                         0                       # Number of times read queue was full causing retry
system.mem_ctrls.numWrRetry                         0                       # Number of times write queue was full causing retry
system.mem_ctrls.readPktSize::0                     0                       # Read request sizes (log2)
system.mem_ctrls.readPktSize::1                     0                       # Read request sizes (log2)
system.mem_ctrls.readPktSize::2                     0                       # Read request sizes (log2)
system.mem_ctrls.readPktSize::3                     0                       # Read request sizes (log2)
system.mem_ctrls.readPktSize::4                     0                       # Read request sizes (log2)
system.mem_ctrls.readPktSize::5                     0                       # Read request sizes (log2)
system.mem_ctrls.readPktSize::6               5264380                       # Read request sizes (log2)
system.mem_ctrls.readPktSize::7                     0                       # Read request sizes (log2)
system.mem_ctrls.writePktSize::0                    0                       # Write request sizes (log2)
system.mem_ctrls.writePktSize::1                    0                       # Write request sizes (log2)
system.mem_ctrls.writePktSize::2                    0                       # Write request sizes (log2)
system.mem_ctrls.writePktSize::3                    0                       # Write request sizes (log2)
system.mem_ctrls.writePktSize::4                    0                       # Write request sizes (log2)
system.mem_ctrls.writePktSize::5                    0                       # Write request sizes (log2)
system.mem_ctrls.writePktSize::6              5197720                       # Write request sizes (log2)
system.mem_ctrls.writePktSize::7                    0                       # Write request sizes (log2)
system.mem_ctrls.rdQLenPdf::0                 2632007                       # What read queue length does an incoming req see
system.mem_ctrls.rdQLenPdf::1                 2632010                       # What read queue length does an incoming req see
system.mem_ctrls.rdQLenPdf::2                     171                       # What read queue length does an incoming req see
system.mem_ctrls.rdQLenPdf::3                     170                       # What read queue length does an incoming req see
system.mem_ctrls.rdQLenPdf::4                      12                       # What read queue length does an incoming req see
system.mem_ctrls.rdQLenPdf::5                      10                       # What read queue length does an incoming req see
system.mem_ctrls.rdQLenPdf::6                       0                       # What read queue length does an incoming req see
system.mem_ctrls.rdQLenPdf::7                       0                       # What read queue length does an incoming req see
system.mem_ctrls.rdQLenPdf::8                       0                       # What read queue length does an incoming req see
system.mem_ctrls.rdQLenPdf::9                       0                       # What read queue length does an incoming req see
system.mem_ctrls.rdQLenPdf::10                      0                       # What read queue length does an incoming req see
[...]
system.mem_ctrls.dram.bw_write::.writebacks    667487807                       # Write bandwidth from this memory (bytes/s)
system.mem_ctrls.dram.bw_write::total       667487807                       # Write bandwidth from this memory (bytes/s)
system.mem_ctrls.dram.bw_total::.writebacks    667487807                       # Total bandwidth to/from this memory (bytes/s)
system.mem_ctrls.dram.bw_total::.cpu.inst        98112                       # Total bandwidth to/from this memory (bytes/s)
system.mem_ctrls.dram.bw_total::.cpu.data    675950128                       # Total bandwidth to/from this memory (bytes/s)
system.mem_ctrls.dram.bw_total::total      1343536047                       # Total bandwidth to/from this memory (bytes/s)
system.mem_ctrls.dram.readBursts              5264380                       # Number of DRAM read bursts
system.mem_ctrls.dram.writeBursts             5197689                       # Number of DRAM write bursts
system.mem_ctrls.dram.perBankRdBursts::0       329078                       # Per bank write bursts
system.mem_ctrls.dram.perBankRdBursts::1       329142                       # Per bank write bursts
system.mem_ctrls.dram.perBankRdBursts::2       329162                       # Per bank write bursts
system.mem_ctrls.dram.perBankRdBursts::3       329040                       # Per bank write bursts
system.mem_ctrls.dram.perBankRdBursts::4       329036                       # Per bank write bursts
system.mem_ctrls.dram.perBankRdBursts::5       329094                       # Per bank write bursts
system.mem_ctrls.dram.perBankRdBursts::6       329110                       # Per bank write bursts
system.mem_ctrls.dram.perBankRdBursts::7       328956                       # Per bank write bursts
system.mem_ctrls.dram.perBankRdBursts::8       328912                       # Per bank write bursts
system.mem_ctrls.dram.perBankRdBursts::9       328886                       # Per bank write bursts
system.mem_ctrls.dram.perBankRdBursts::10       328926                       # Per bank write bursts
system.mem_ctrls.dram.perBankRdBursts::11       328994                       # Per bank write bursts
system.mem_ctrls.dram.perBankRdBursts::12       329056                       # Per bank write bursts
system.mem_ctrls.dram.perBankRdBursts::13       329054                       # Per bank write bursts
system.mem_ctrls.dram.perBankRdBursts::14       329104                       # Per bank write bursts
system.mem_ctrls.dram.perBankRdBursts::15       328830                       # Per bank write bursts
system.mem_ctrls.dram.perBankWrBursts::0       324820                       # Per bank write bursts
system.mem_ctrls.dram.perBankWrBursts::1       324945                       # Per bank write bursts
system.mem_ctrls.dram.perBankWrBursts::2       324988                       # Per bank write bursts
system.mem_ctrls.dram.perBankWrBursts::3       324902                       # Per bank write bursts
system.mem_ctrls.dram.perBankWrBursts::4       324930                       # Per bank write bursts
system.mem_ctrls.dram.perBankWrBursts::5       324938                       # Per bank write bursts
system.mem_ctrls.dram.perBankWrBursts::6       324950                       # Per bank write bursts
system.mem_ctrls.dram.perBankWrBursts::7       324834                       # Per bank write bursts
system.mem_ctrls.dram.perBankWrBursts::8       324736                       # Per bank write bursts
system.mem_ctrls.dram.perBankWrBursts::9       324736                       # Per bank write bursts
system.mem_ctrls.dram.perBankWrBursts::10       324736                       # Per bank write bursts
system.mem_ctrls.dram.perBankWrBursts::11       324826                       # Per bank write bursts
system.mem_ctrls.dram.perBankWrBursts::12       324894                       # Per bank write bursts
system.mem_ctrls.dram.perBankWrBursts::13       324876                       # Per bank write bursts
system.mem_ctrls.dram.perBankWrBursts::14       324884                       # Per bank write bursts
system.mem_ctrls.dram.perBankWrBursts::15       324694                       # Per bank write bursts
system.mem_ctrls.dram.totQLat            112938109750                       # Total ticks spent queuing
system.mem_ctrls.dram.totBusLat           26321900000                       # Total ticks spent in databus transfers
system.mem_ctrls.dram.totMemAccLat       211645234750                       # Total ticks spent from burst creation until serviced by the DRAM
system.mem_ctrls.dram.avgQLat                21453.26                       # Average queueing delay per DRAM burst
system.mem_ctrls.dram.avgBusLat               5000.00                       # Average bus latency per DRAM burst
system.mem_ctrls.dram.avgMemAccLat           40203.26                       # Average memory access latency per DRAM burst
system.mem_ctrls.dram.readRowHits             4675401                       # Number of row buffer hits during reads
system.mem_ctrls.dram.writeRowHits            4617539                       # Number of row buffer hits during writes
system.mem_ctrls.dram.readRowHitRate            88.81                       # Row buffer hit rate for reads
system.mem_ctrls.dram.writeRowHitRate           88.84                       # Row buffer hit rate for writes
system.mem_ctrls.dram.bytesPerActivate::samples      1169128                       # Bytes accessed per row activation
system.mem_ctrls.dram.bytesPerActivate::mean   572.710738                       # Bytes accessed per row activation
system.mem_ctrls.dram.bytesPerActivate::gmean   379.896721                       # Bytes accessed per row activation
system.mem_ctrls.dram.bytesPerActivate::stdev   420.049924                       # Bytes accessed per row activation
system.mem_ctrls.dram.bytesPerActivate::0-127        19648      1.68%      1.68% # Bytes accessed per row activation
system.mem_ctrls.dram.bytesPerActivate::128-255       471696     40.35%     42.03% # Bytes accessed per row activation
system.mem_ctrls.dram.bytesPerActivate::256-383        40979      3.51%     45.53% # Bytes accessed per row activation
system.mem_ctrls.dram.bytesPerActivate::384-511        32742      2.80%     48.33% # Bytes accessed per row activation
system.mem_ctrls.dram.bytesPerActivate::512-639        28845      2.47%     50.80% # Bytes accessed per row activation
system.mem_ctrls.dram.bytesPerActivate::640-767        28594      2.45%     53.25% # Bytes accessed per row activation
system.mem_ctrls.dram.bytesPerActivate::768-895        32814      2.81%     56.05% # Bytes accessed per row activation
system.mem_ctrls.dram.bytesPerActivate::896-1023        32103      2.75%     58.80% # Bytes accessed per row activation
system.mem_ctrls.dram.bytesPerActivate::1024-1151       481707     41.20%    100.00% # Bytes accessed per row activation
system.mem_ctrls.dram.bytesPerActivate::total      1169128                       # Bytes accessed per row activation
system.mem_ctrls.dram.bytesRead             336920320                       # Total number of bytes read from DRAM
system.mem_ctrls.dram.bytesWritten          332652096                       # Total number of bytes written to DRAM
system.mem_ctrls.dram.avgRdBW              676.048240                       # Average DRAM read bandwidth in MiBytes/s
system.mem_ctrls.dram.avgWrBW              667.483826                       # Average DRAM write bandwidth in MiBytes/s
system.mem_ctrls.dram.peakBW                 12800.00                       # Theoretical peak bandwidth in MiByte/s
system.mem_ctrls.dram.busUtil                   10.50                       # Data bus utilization in percentage
system.mem_ctrls.dram.busUtilRead                5.28                       # Data bus utilization in percentage for reads
system.mem_ctrls.dram.busUtilWrite               5.21                       # Data bus utilization in percentage for writes
system.mem_ctrls.dram.pageHitRate               88.83                       # Row buffer hit rate, read and write combined
system.mem_ctrls.dram.power_state.pwrStateResidencyTicks::UNDEFINED 498367276000                       # Cumulative time (in ticks) in various power states
system.mem_ctrls.dram.rank0.actEnergy      4174422420                       # Energy for activate commands per rank (pJ)
system.mem_ctrls.dram.rank0.preEnergy      2218754340                       # Energy for precharge commands per rank (pJ)
system.mem_ctrls.dram.rank0.readEnergy    18796892520                       # Energy for read commands per rank (pJ)
system.mem_ctrls.dram.rank0.writeEnergy   13568382540                       # Energy for write commands per rank (pJ)
system.mem_ctrls.dram.rank0.refreshEnergy 39340647840.000008                       # Energy for refresh commands per rank (pJ)
system.mem_ctrls.dram.rank0.actBackEnergy 115853544810                       # Energy for active background per rank (pJ)
system.mem_ctrls.dram.rank0.preBackEnergy  93812154240                       # Energy for precharge background per rank (pJ)
system.mem_ctrls.dram.rank0.actPowerDownEnergy            0                       # Energy for active power-down per rank (pJ)
system.mem_ctrls.dram.rank0.prePowerDownEnergy            0                       # Energy for precharge power-down per rank (pJ)
system.mem_ctrls.dram.rank0.selfRefreshEnergy            0                       # Energy for self refresh per rank (pJ)
system.mem_ctrls.dram.rank0.totalEnergy  287764798710                       # Total energy per rank (pJ)
system.mem_ctrls.dram.rank0.averagePower   577.415116                       # Core power per rank (mW)
system.mem_ctrls.dram.rank0.totalIdleTime            0                       # Total Idle time Per DRAM Rank
system.mem_ctrls.dram.rank0.pwrStateTime::IDLE 238890237750                       # Time in different power states
system.mem_ctrls.dram.rank0.pwrStateTime::REF  16641560000                       # Time in different power states
system.mem_ctrls.dram.rank0.pwrStateTime::SREF            0                       # Time in different power states
system.mem_ctrls.dram.rank0.pwrStateTime::PRE_PDN            0                       # Time in different power states
system.mem_ctrls.dram.rank0.pwrStateTime::ACT 242835478250                       # Time in different power states
system.mem_ctrls.dram.rank0.pwrStateTime::ACT_PDN            0                       # Time in different power states
system.mem_ctrls.dram.rank1.actEnergy      4173158640                       # Energy for activate commands per rank (pJ)
system.mem_ctrls.dram.rank1.preEnergy      2218086420                       # Energy for precharge commands per rank (pJ)
system.mem_ctrls.dram.rank1.readEnergy    18790780680                       # Energy for read commands per rank (pJ)
system.mem_ctrls.dram.rank1.writeEnergy   13563554040                       # Energy for write commands per rank (pJ)
system.mem_ctrls.dram.rank1.refreshEnergy 39340647840.000008                       # Energy for refresh commands per rank (pJ)
system.mem_ctrls.dram.rank1.actBackEnergy 115796210790                       # Energy for active background per rank (pJ)
system.mem_ctrls.dram.rank1.preBackEnergy  93860435520                       # Energy for precharge background per rank (pJ)
system.mem_ctrls.dram.rank1.actPowerDownEnergy            0                       # Energy for active power-down per rank (pJ)
system.mem_ctrls.dram.rank1.prePowerDownEnergy            0                       # Energy for precharge power-down per rank (pJ)
system.mem_ctrls.dram.rank1.selfRefreshEnergy            0                       # Energy for self refresh per rank (pJ)
system.mem_ctrls.dram.rank1.totalEnergy  287742873930                       # Total energy per rank (pJ)
system.mem_ctrls.dram.rank1.averagePower   577.371123                       # Core power per rank (mW)
system.mem_ctrls.dram.rank1.totalIdleTime            0                       # Total Idle time Per DRAM Rank
system.mem_ctrls.dram.rank1.pwrStateTime::IDLE 239019509250                       # Time in different power states
system.mem_ctrls.dram.rank1.pwrStateTime::REF  16641560000                       # Time in different power states
system.mem_ctrls.dram.rank1.pwrStateTime::SREF            0                       # Time in different power states
system.mem_ctrls.dram.rank1.pwrStateTime::PRE_PDN            0                       # Time in different power states
system.mem_ctrls.dram.rank1.pwrStateTime::ACT 242706206750                       # Time in different power states
system.mem_ctrls.dram.rank1.pwrStateTime::ACT_PDN            0                       # Time in different power states
system.mem_ctrls.power_state.pwrStateResidencyTicks::UNDEFINED 498367276000                       # Cumulative time (in ticks) in various power states
system.membus.trans_dist::ReadResp                584                       # Transaction distribution
system.membus.trans_dist::WritebackDirty      2598860                       # Transaction distribution
system.membus.trans_dist::CleanEvict              151                       # Transaction distribution
system.membus.trans_dist::ReadExReq           2631606                       # Transaction distribution
system.membus.trans_dist::ReadExResp          2631606                       # Transaction distribution
system.membus.trans_dist::ReadSharedReq           584                       # Transaction distribution
system.membus.pkt_count_system.l2.mem_side_port::system.mem_ctrls.port      7863391                       # Packet count per connected requestor and responder (bytes)
system.membus.pkt_count::total                7863391                       # Packet count per connected requestor and responder (bytes)
system.membus.pkt_size_system.l2.mem_side_port::system.mem_ctrls.port    669574400                       # Cumulative packet size per connected requestor and responder (bytes)
system.membus.pkt_size::total               669574400                       # Cumulative packet size per connected requestor and responder (bytes)
system.membus.snoops                                0                       # Total snoops (count)
system.membus.snoopTraffic                          0                       # Total snoop traffic (bytes)
system.membus.snoop_fanout::samples           2632190                       # Request fanout histogram
system.membus.snoop_fanout::mean                    0                       # Request fanout histogram
system.membus.snoop_fanout::stdev                   0                       # Request fanout histogram
system.membus.snoop_fanout::underflows              0      0.00%      0.00% # Request fanout histogram
system.membus.snoop_fanout::0                 2632190    100.00%    100.00% # Request fanout histogram
system.membus.snoop_fanout::1                       0      0.00%    100.00% # Request fanout histogram
system.membus.snoop_fanout::overflows               0      0.00%    100.00% # Request fanout histogram
system.membus.snoop_fanout::min_value               0                       # Request fanout histogram
system.membus.snoop_fanout::max_value               0                       # Request fanout histogram
system.membus.snoop_fanout::total             2632190                       # Request fanout histogram
system.membus.power_state.pwrStateResidencyTicks::UNDEFINED 498367276000                       # Cumulative time (in ticks) in various power states
system.membus.reqLayer0.occupancy         26022081000                       # Layer occupancy (ticks)
system.membus.reqLayer0.utilization               5.2                       # Layer utilization (%)
system.membus.respLayer1.occupancy        24419073250                       # Layer occupancy (ticks)
system.membus.respLayer1.utilization              4.9                       # Layer utilization (%)
system.tol2bus.trans_dist::ReadResp               815                       # Transaction distribution
system.tol2bus.trans_dist::WritebackDirty      5230161                       # Transaction distribution
system.tol2bus.trans_dist::WritebackClean            2                       # Transaction distribution
system.tol2bus.trans_dist::CleanEvict             945                       # Transaction distribution
system.tol2bus.trans_dist::ReadExReq          2631780                       # Transaction distribution
system.tol2bus.trans_dist::ReadExResp         2631780                       # Transaction distribution
system.tol2bus.trans_dist::ReadCleanReq           399                       # Transaction distribution
system.tol2bus.trans_dist::ReadSharedReq          416                       # Transaction distribution
system.tol2bus.pkt_count_system.cpu.icache.mem_side_port::system.l2.cpu_side_port          800                       # Packet count per connected requestor and responder (bytes)
system.tol2bus.pkt_count_system.cpu.dcache.mem_side_port::system.l2.cpu_side_port      7896076                       # Packet count per connected requestor and responder (bytes)
system.tol2bus.pkt_count::total               7896876                       # Packet count per connected requestor and responder (bytes)
system.tol2bus.pkt_size_system.cpu.icache.mem_side_port::system.l2.cpu_side_port        51328                       # Cumulative packet size per connected requestor and responder (bytes)
system.tol2bus.pkt_size_system.cpu.dcache.mem_side_port::system.l2.cpu_side_port    673727616                       # Cumulative packet size per connected requestor and responder (bytes)
system.tol2bus.pkt_size::total              673778944                       # Cumulative packet size per connected requestor and responder (bytes)
system.tol2bus.snoops                         2599422                       # Total snoops (count)
system.tol2bus.snoopTraffic                 332654080                       # Total snoop traffic (bytes)
system.tol2bus.snoop_fanout::samples          5232017                       # Request fanout histogram
system.tol2bus.snoop_fanout::mean            0.000090                       # Request fanout histogram
system.tol2bus.snoop_fanout::stdev           0.009498                       # Request fanout histogram
system.tol2bus.snoop_fanout::underflows             0      0.00%      0.00% # Request fanout histogram
system.tol2bus.snoop_fanout::0                5231545     99.99%     99.99% # Request fanout histogram
system.tol2bus.snoop_fanout::1                    472      0.01%    100.00% # Request fanout histogram
system.tol2bus.snoop_fanout::2                      0      0.00%    100.00% # Request fanout histogram
system.tol2bus.snoop_fanout::overflows              0      0.00%    100.00% # Request fanout histogram
system.tol2bus.snoop_fanout::min_value              0                       # Request fanout histogram
system.tol2bus.snoop_fanout::max_value              1                       # Request fanout histogram
system.tol2bus.snoop_fanout::total            5232017                       # Request fanout histogram
system.tol2bus.power_state.pwrStateResidencyTicks::UNDEFINED 498367276000                       # Cumulative time (in ticks) in various power states
system.tol2bus.reqLayer0.occupancy        15789493000                       # Layer occupancy (ticks)
system.tol2bus.reqLayer0.utilization              3.2                       # Layer utilization (%)
system.tol2bus.respLayer0.occupancy           1995999                       # Layer occupancy (ticks)
system.tol2bus.respLayer0.utilization             0.0                       # Layer utilization (%)
system.tol2bus.respLayer1.occupancy       13160987992                       # Layer occupancy (ticks)
system.tol2bus.respLayer1.utilization             2.6                       # Layer utilization (%)
system.voltage_domain.voltage                       1                       # Voltage in Volts

---------- End Simulation Statistics   ----------
