
---------- Begin Simulation Statistics ----------
final_tick                               218844628000                       # Number of ticks from beginning of simulation (restored from checkpoints and never reset)
host_inst_rate                                 273101                       # Simulator instruction rate (inst/s)
host_mem_usage                                 667168                       # Number of bytes of host memory used
host_op_rate                                   298858                       # Simulator op (including micro ops) rate (op/s)
host_seconds                                   366.17                       # Real time elapsed on the host
host_tick_rate                              597665916                       # Simulator tick rate (ticks/s)
sim_freq                                 1000000000000                       # Frequency of simulated ticks
sim_insts                                   100000001                       # Number of instructions simulated
sim_ops                                     109431277                       # Number of ops (including micro ops) simulated
sim_seconds                                  0.218845                       # Number of seconds simulated
sim_ticks                                218844628000                       # Number of ticks simulated
system.cpu.committedInsts                   100000001                       # Number of instructions committed
system.cpu.committedOps                     109431277                       # Number of ops (including micro ops) committed
system.cpu.cpi                               1.094223                       # CPI: cycles per instruction
system.cpu.discardedOps                        372312                       # Number of ops (including micro ops) which were discarded before commit
system.cpu.idleCycles                         1772491                       # Total number of cycles that the object has spent stopped
system.cpu.ipc                               0.913890                       # IPC: instructions per cycle
system.cpu.numCycles                        109422314                       # number of cpu cycles simulated
system.cpu.numFetchSuspends                         0                       # Number of times Execute suspended instruction fetching
system.cpu.numWorkItemsCompleted                    0                       # number of work items this cpu completed
system.cpu.numWorkItemsStarted                      0                       # number of work items this cpu started
system.cpu.op_class_0::No_OpClass                   0      0.00%      0.00% # Class of committed instruction
system.cpu.op_class_0::IntAlu                72955010     66.67%     66.67% # Class of committed instruction
system.cpu.op_class_0::IntMult                 568364      0.52%     67.19% # Class of committed instruction
system.cpu.op_class_0::IntDiv                       0      0.00%     67.19% # Class of committed instruction
system.cpu.op_class_0::FloatAdd                     0      0.00%     67.19% # Class of committed instruction
system.cpu.op_class_0::FloatCmp                     0      0.00%     67.19% # Class of committed instruction
system.cpu.op_class_0::FloatCvt                     0      0.00%     67.19% # Class of committed instruction
system.cpu.op_class_0::FloatMult                    0      0.00%     67.19% # Class of committed instruction
system.cpu.op_class_0::FloatMultAcc                 0      0.00%     67.19% # Class of committed instruction
system.cpu.op_class_0::FloatDiv                     0      0.00%     67.19% # Class of committed instruction
system.cpu.op_class_0::FloatMisc                    0      0.00%     67.19% # Class of committed instruction
system.cpu.op_class_0::FloatSqrt                    0      0.00%     67.19% # Class of committed instruction
system.cpu.op_class_0::SimdAdd                 241336      0.22%     67.41% # Class of committed instruction
system.cpu.op_class_0::SimdAddAcc                   0      0.00%     67.41% # Class of committed instruction
system.cpu.op_class_0::SimdAlu                 154628      0.14%     67.55% # Class of committed instruction
system.cpu.op_class_0::SimdCmp                 120668      0.11%     67.66% # Class of committed instruction
system.cpu.op_class_0::SimdCvt                      0      0.00%     67.66% # Class of committed instruction
system.cpu.op_class_0::SimdMisc                 44543      0.04%     67.70% # Class of committed instruction
system.cpu.op_class_0::SimdMult                     0      0.00%     67.70% # Class of committed instruction
system.cpu.op_class_0::SimdMultAcc                  0      0.00%     67.70% # Class of committed instruction
system.cpu.op_class_0::SimdShift                    0      0.00%     67.70% # Class of committed instruction
system.cpu.op_class_0::SimdShiftAcc                 0      0.00%     67.70% # Class of committed instruction
system.cpu.op_class_0::SimdDiv                      0      0.00%     67.70% # Class of committed instruction
system.cpu.op_class_0::SimdSqrt                     0      0.00%     67.70% # Class of committed instruction
system.cpu.op_class_0::SimdFloatAdd                 0      0.00%     67.70% # Class of committed instruction
system.cpu.op_class_0::SimdFloatAlu                 0      0.00%     67.70% # Class of committed instruction
system.cpu.op_class_0::SimdFloatCmp                 0      0.00%     67.70% # Class of committed instruction
system.cpu.op_class_0::SimdFloatCvt                 0      0.00%     67.70% # Class of committed instruction
system.cpu.op_class_0::SimdFloatDiv                 0      0.00%     67.70% # Class of committed instruction
system.cpu.op_class_0::SimdFloatMisc           166417      0.15%     67.85% # Class of committed instruction
system.cpu.op_class_0::SimdFloatMult                0      0.00%     67.85% # Class of committed instruction
system.cpu.op_class_0::SimdFloatMultAcc             0      0.00%     67.85% # Class of committed instruction
system.cpu.op_class_0::SimdFloatSqrt                0      0.00%     67.85% # Class of committed instruction
system.cpu.op_class_0::SimdReduceAdd                0      0.00%     67.85% # Class of committed instruction
system.cpu.op_class_0::SimdReduceAlu                0      0.00%     67.85% # Class of committed instruction
system.cpu.op_class_0::SimdReduceCmp                0      0.00%     67.85% # Class of committed instruction
system.cpu.op_class_0::SimdFloatReduceAdd            0      0.00%     67.85% # Class of committed instruction
system.cpu.op_class_0::SimdFloatReduceCmp            0      0.00%     67.85% # Class of committed instruction
system.cpu.op_class_0::SimdAes                      0      0.00%     67.85% # Class of committed instruction
system.cpu.op_class_0::SimdAesMix                   0      0.00%     67.85% # Class of committed instruction
system.cpu.op_class_0::SimdSha1Hash                 0      0.00%     67.85% # Class of committed instruction
system.cpu.op_class_0::SimdSha1Hash2                0      0.00%     67.85% # Class of committed instruction
system.cpu.op_class_0::SimdSha256Hash               0      0.00%     67.85% # Class of committed instruction
system.cpu.op_class_0::SimdSha256Hash2              0      0.00%     67.85% # Class of committed instruction
system.cpu.op_class_0::SimdShaSigma2                0      0.00%     67.85% # Class of committed instruction
system.cpu.op_class_0::SimdShaSigma3                0      0.00%     67.85% # Class of committed instruction
system.cpu.op_class_0::SimdPredAlu                  0      0.00%     67.85% # Class of committed instruction
system.cpu.op_class_0::MemRead               20645992     18.87%     86.72% # Class of committed instruction
system.cpu.op_class_0::MemWrite              14534319     13.28%    100.00% # Class of committed instruction
system.cpu.op_class_0::FloatMemRead                 0      0.00%    100.00% # Class of committed instruction
system.cpu.op_class_0::FloatMemWrite                0      0.00%    100.00% # Class of committed instruction
system.cpu.op_class_0::IprAccess                    0      0.00%    100.00% # Class of committed instruction
system.cpu.op_class_0::InstPrefetch                 0      0.00%    100.00% # Class of committed instruction
system.cpu.op_class_0::total                109431277                       # Class of committed instruction
system.cpu.tickCycles                       107649823                       # Number of cycles that the object actually ticked
system.cpu.workload.numSyscalls                    87                       # Number of system calls
system.membus.snoop_filter.hit_multi_requests            0                       # Number of requests hitting in the snoop filter with multiple (>1) holders of the requested data.
system.membus.snoop_filter.hit_multi_snoops            0                       # Number of snoops hitting in the snoop filter with multiple (>1) holders of the requested data.
system.membus.snoop_filter.hit_single_requests            0                       # Number of requests hitting in the snoop filter with a single holder of the requested data.
system.membus.snoop_filter.hit_single_snoops            0                       # Number of snoops hitting in the snoop filter with a single holder of the requested data.
system.membus.snoop_filter.tot_requests         19885                       # Total number of requests made to the snoop filter.
system.membus.snoop_filter.tot_snoops               0                       # Total number of snoops made to the snoop filter.
system.tol2bus.snoop_filter.hit_multi_requests           79                       # Number of requests hitting in the snoop filter with multiple (>1) holders of the requested data.
system.tol2bus.snoop_filter.hit_multi_snoops            0                       # Number of snoops hitting in the snoop filter with multiple (>1) holders of the requested data.
system.tol2bus.snoop_filter.hit_single_requests        34979                       # Number of requests hitting in the snoop filter with a single holder of the requested data.
system.tol2bus.snoop_filter.hit_single_snoops            0                       # Number of snoops hitting in the snoop filter with a single holder of the requested data.
system.tol2bus.snoop_filter.tot_requests        70794                       # Total number of requests made to the snoop filter.
system.tol2bus.snoop_filter.tot_snoops              0                       # Total number of snoops made to the snoop filter.
system.clk_domain.clock                          1000                       # Clock period in ticks
system.cpu.branchPred.lookups                20343187                       # Number of BP lookups
system.cpu.branchPred.condPredicted          16280352                       # Number of conditional branches predicted
system.cpu.branchPred.condIncorrect             53395                       # Number of conditional branches incorrect
system.cpu.branchPred.BTBLookups              8734279                       # Number of BTB lookups
system.cpu.branchPred.BTBHits                 8732833                       # Number of BTB hits
system.cpu.branchPred.BTBHitPct             99.983445                       # BTB Hit Percentage
system.cpu.branchPred.RASUsed                 1050585                       # Number of times the RAS was used to get a target.
system.cpu.branchPred.RASIncorrect                324                       # Number of incorrect RAS predictions.
system.cpu.branchPred.indirectLookups          434007                       # Number of indirect predictor lookups.
system.cpu.branchPred.indirectHits             300039                       # Number of indirect target hits.
system.cpu.branchPred.indirectMisses           133968                       # Number of indirect misses.
system.cpu.branchPred.indirectMispredicted         1047                       # Number of mispredicted indirect branches.
system.cpu.dcache.demand_hits::.cpu.data     34786360                       # number of demand (read+write) hits
system.cpu.dcache.demand_hits::total         34786360                       # number of demand (read+write) hits
system.cpu.dcache.overall_hits::.cpu.data     34789671                       # number of overall hits
system.cpu.dcache.overall_hits::total        34789671                       # number of overall hits
system.cpu.dcache.demand_misses::.cpu.data        45538                       # number of demand (read+write) misses
system.cpu.dcache.demand_misses::total          45538                       # number of demand (read+write) misses
system.cpu.dcache.overall_misses::.cpu.data        45588                       # number of overall misses
system.cpu.dcache.overall_misses::total         45588                       # number of overall misses
system.cpu.dcache.demand_miss_latency::.cpu.data   4966800000                       # number of demand (read+write) miss cycles
system.cpu.dcache.demand_miss_latency::total   4966800000                       # number of demand (read+write) miss cycles
system.cpu.dcache.overall_miss_latency::.cpu.data   4966800000                       # number of overall miss cycles
system.cpu.dcache.overall_miss_latency::total   4966800000                       # number of overall miss cycles
system.cpu.dcache.demand_accesses::.cpu.data     34831898                       # number of demand (read+write) accesses
system.cpu.dcache.demand_accesses::total     34831898                       # number of demand (read+write) accesses
system.cpu.dcache.overall_accesses::.cpu.data     34835259                       # number of overall (read+write) accesses
system.cpu.dcache.overall_accesses::total     34835259                       # number of overall (read+write) accesses
system.cpu.dcache.demand_miss_rate::.cpu.data     0.001307                       # miss rate for demand accesses
system.cpu.dcache.demand_miss_rate::total     0.001307                       # miss rate for demand accesses
system.cpu.dcache.overall_miss_rate::.cpu.data     0.001309                       # miss rate for overall accesses
system.cpu.dcache.overall_miss_rate::total     0.001309                       # miss rate for overall accesses
system.cpu.dcache.demand_avg_miss_latency::.cpu.data 109069.348676                       # average overall miss latency
system.cpu.dcache.demand_avg_miss_latency::total 109069.348676                       # average overall miss latency
system.cpu.dcache.overall_avg_miss_latency::.cpu.data 108949.723611                       # average overall miss latency
system.cpu.dcache.overall_avg_miss_latency::total 108949.723611                       # average overall miss latency
system.cpu.dcache.blocked_cycles::no_mshrs            0                       # number of cycles access was blocked
system.cpu.dcache.blocked_cycles::no_targets            0                       # number of cycles access was blocked
system.cpu.dcache.blocked::no_mshrs                 0                       # number of cycles access was blocked
system.cpu.dcache.blocked::no_targets               0                       # number of cycles access was blocked
system.cpu.dcache.avg_blocked_cycles::no_mshrs          nan                       # average number of cycles each access was blocked
system.cpu.dcache.avg_blocked_cycles::no_targets          nan                       # average number of cycles each access was blocked
system.cpu.dcache.writebacks::.writebacks        32449                       # number of writebacks
system.cpu.dcache.writebacks::total             32449                       # number of writebacks
system.cpu.dcache.demand_mshr_hits::.cpu.data        10088                       # number of demand (read+write) MSHR hits
system.cpu.dcache.demand_mshr_hits::total        10088                       # number of demand (read+write) MSHR hits
system.cpu.dcache.overall_mshr_hits::.cpu.data        10088                       # number of overall MSHR hits
system.cpu.dcache.overall_mshr_hits::total        10088                       # number of overall MSHR hits
system.cpu.dcache.demand_mshr_misses::.cpu.data        35450                       # number of demand (read+write) MSHR misses
system.cpu.dcache.demand_mshr_misses::total        35450                       # number of demand (read+write) MSHR misses
system.cpu.dcache.overall_mshr_misses::.cpu.data        35476                       # number of overall MSHR misses
system.cpu.dcache.overall_mshr_misses::total        35476                       # number of overall MSHR misses
system.cpu.dcache.demand_mshr_miss_latency::.cpu.data   3857748000                       # number of demand (read+write) MSHR miss cycles
system.cpu.dcache.demand_mshr_miss_latency::total   3857748000                       # number of demand (read+write) MSHR miss cycles
system.cpu.dcache.overall_mshr_miss_latency::.cpu.data   3859994000                       # number of overall MSHR miss cycles
system.cpu.dcache.overall_mshr_miss_latency::total   3859994000                       # number of overall MSHR miss cycles
system.cpu.dcache.demand_mshr_miss_rate::.cpu.data     0.001018                       # mshr miss rate for demand accesses
system.cpu.dcache.demand_mshr_miss_rate::total     0.001018                       # mshr miss rate for demand accesses
system.cpu.dcache.overall_mshr_miss_rate::.cpu.data     0.001018                       # mshr miss rate for overall accesses
system.cpu.dcache.overall_mshr_miss_rate::total     0.001018                       # mshr miss rate for overall accesses
system.cpu.dcache.demand_avg_mshr_miss_latency::.cpu.data 108822.228491                       # average overall mshr miss latency
system.cpu.dcache.demand_avg_mshr_miss_latency::total 108822.228491                       # average overall mshr miss latency
system.cpu.dcache.overall_avg_mshr_miss_latency::.cpu.data 108805.784192                       # average overall mshr miss latency
system.cpu.dcache.overall_avg_mshr_miss_latency::total 108805.784192                       # average overall mshr miss latency
system.cpu.dcache.replacements                  34964                       # number of replacements
system.cpu.dcache.ReadReq_hits::.cpu.data     20603826                       # number of ReadReq hits
system.cpu.dcache.ReadReq_hits::total        20603826                       # number of ReadReq hits
system.cpu.dcache.ReadReq_misses::.cpu.data        18377                       # number of ReadReq misses
system.cpu.dcache.ReadReq_misses::total         18377                       # number of ReadReq misses
system.cpu.dcache.ReadReq_miss_latency::.cpu.data    992168000                       # number of ReadReq miss cycles
system.cpu.dcache.ReadReq_miss_latency::total    992168000                       # number of ReadReq miss cycles
system.cpu.dcache.ReadReq_accesses::.cpu.data     20622203                       # number of ReadReq accesses(hits+misses)
system.cpu.dcache.ReadReq_accesses::total     20622203                       # number of ReadReq accesses(hits+misses)
system.cpu.dcache.ReadReq_miss_rate::.cpu.data     0.000891                       # miss rate for ReadReq accesses
system.cpu.dcache.ReadReq_miss_rate::total     0.000891                       # miss rate for ReadReq accesses
system.cpu.dcache.ReadReq_avg_miss_latency::.cpu.data 53989.660989                       # average ReadReq miss latency
system.cpu.dcache.ReadReq_avg_miss_latency::total 53989.660989                       # average ReadReq miss latency
system.cpu.dcache.ReadReq_mshr_hits::.cpu.data         2380                       # number of ReadReq MSHR hits
system.cpu.dcache.ReadReq_mshr_hits::total         2380                       # number of ReadReq MSHR hits
system.cpu.dcache.ReadReq_mshr_misses::.cpu.data        15997                       # number of ReadReq MSHR misses
system.cpu.dcache.ReadReq_mshr_misses::total        15997                       # number of ReadReq MSHR misses
system.cpu.dcache.ReadReq_mshr_miss_latency::.cpu.data    782648000                       # number of ReadReq MSHR miss cycles
system.cpu.dcache.ReadReq_mshr_miss_latency::total    782648000                       # number of ReadReq MSHR miss cycles
system.cpu.dcache.ReadReq_mshr_miss_rate::.cpu.data     0.000776                       # mshr miss rate for ReadReq accesses
system.cpu.dcache.ReadReq_mshr_miss_rate::total     0.000776                       # mshr miss rate for ReadReq accesses
system.cpu.dcache.ReadReq_avg_mshr_miss_latency::.cpu.data 48924.673376                       # average ReadReq mshr miss latency
system.cpu.dcache.ReadReq_avg_mshr_miss_latency::total 48924.673376                       # average ReadReq mshr miss latency
system.cpu.dcache.WriteReq_hits::.cpu.data     14182534                       # number of WriteReq hits
system.cpu.dcache.WriteReq_hits::total       14182534                       # number of WriteReq hits
system.cpu.dcache.WriteReq_misses::.cpu.data        27161                       # number of WriteReq misses
system.cpu.dcache.WriteReq_misses::total        27161                       # number of WriteReq misses
system.cpu.dcache.WriteReq_miss_latency::.cpu.data   3974632000                       # number of WriteReq miss cycles
system.cpu.dcache.WriteReq_miss_latency::total   3974632000                       # number of WriteReq miss cycles
system.cpu.dcache.WriteReq_accesses::.cpu.data     14209695                       # number of WriteReq accesses(hits+misses)
system.cpu.dcache.WriteReq_accesses::total     14209695                       # number of WriteReq accesses(hits+misses)
system.cpu.dcache.WriteReq_miss_rate::.cpu.data     0.001911                       # miss rate for WriteReq accesses
system.cpu.dcache.WriteReq_miss_rate::total     0.001911                       # miss rate for WriteReq accesses
system.cpu.dcache.WriteReq_avg_miss_latency::.cpu.data 146335.996466                       # average WriteReq miss latency
system.cpu.dcache.WriteReq_avg_miss_latency::total 146335.996466                       # average WriteReq miss latency
system.cpu.dcache.WriteReq_mshr_hits::.cpu.data         7708                       # number of WriteReq MSHR hits
system.cpu.dcache.WriteReq_mshr_hits::total         7708                       # number of WriteReq MSHR hits
system.cpu.dcache.WriteReq_mshr_misses::.cpu.data        19453                       # number of WriteReq MSHR misses
system.cpu.dcache.WriteReq_mshr_misses::total        19453                       # number of WriteReq MSHR misses
system.cpu.dcache.WriteReq_mshr_miss_latency::.cpu.data   3075100000                       # number of WriteReq MSHR miss cycles
system.cpu.dcache.WriteReq_mshr_miss_latency::total   3075100000                       # number of WriteReq MSHR miss cycles
system.cpu.dcache.WriteReq_mshr_miss_rate::.cpu.data     0.001369                       # mshr miss rate for WriteReq accesses
system.cpu.dcache.WriteReq_mshr_miss_rate::total     0.001369                       # mshr miss rate for WriteReq accesses
system.cpu.dcache.WriteReq_avg_mshr_miss_latency::.cpu.data 158078.445484                       # average WriteReq mshr miss latency
system.cpu.dcache.WriteReq_avg_mshr_miss_latency::total 158078.445484                       # average WriteReq mshr miss latency
system.cpu.dcache.SoftPFReq_hits::.cpu.data         3311                       # number of SoftPFReq hits
system.cpu.dcache.SoftPFReq_hits::total          3311                       # number of SoftPFReq hits
system.cpu.dcache.SoftPFReq_misses::.cpu.data           50                       # number of SoftPFReq misses
system.cpu.dcache.SoftPFReq_misses::total           50                       # number of SoftPFReq misses
system.cpu.dcache.SoftPFReq_accesses::.cpu.data         3361                       # number of SoftPFReq accesses(hits+misses)
system.cpu.dcache.SoftPFReq_accesses::total         3361                       # number of SoftPFReq accesses(hits+misses)
system.cpu.dcache.SoftPFReq_miss_rate::.cpu.data     0.014877                       # miss rate for SoftPFReq accesses
system.cpu.dcache.SoftPFReq_miss_rate::total     0.014877                       # miss rate for SoftPFReq accesses
system.cpu.dcache.SoftPFReq_mshr_misses::.cpu.data           26                       # number of SoftPFReq MSHR misses
system.cpu.dcache.SoftPFReq_mshr_misses::total           26                       # number of SoftPFReq MSHR misses
system.cpu.dcache.SoftPFReq_mshr_miss_latency::.cpu.data      2246000                       # number of SoftPFReq MSHR miss cycles
system.cpu.dcache.SoftPFReq_mshr_miss_latency::total      2246000                       # number of SoftPFReq MSHR miss cycles
system.cpu.dcache.SoftPFReq_mshr_miss_rate::.cpu.data     0.007736                       # mshr miss rate for SoftPFReq accesses
system.cpu.dcache.SoftPFReq_mshr_miss_rate::total     0.007736                       # mshr miss rate for SoftPFReq accesses
system.cpu.dcache.SoftPFReq_avg_mshr_miss_latency::.cpu.data 86384.615385                       # average SoftPFReq mshr miss latency
system.cpu.dcache.SoftPFReq_avg_mshr_miss_latency::total 86384.615385                       # average SoftPFReq mshr miss latency
system.cpu.dcache.LoadLockedReq_hits::.cpu.data        89080                       # number of LoadLockedReq hits
system.cpu.dcache.LoadLockedReq_hits::total        89080                       # number of LoadLockedReq hits
system.cpu.dcache.LoadLockedReq_accesses::.cpu.data        89080                       # number of LoadLockedReq accesses(hits+misses)
system.cpu.dcache.LoadLockedReq_accesses::total        89080                       # number of LoadLockedReq accesses(hits+misses)
system.cpu.dcache.StoreCondReq_hits::.cpu.data        89080                       # number of StoreCondReq hits
system.cpu.dcache.StoreCondReq_hits::total        89080                       # number of StoreCondReq hits
system.cpu.dcache.StoreCondReq_accesses::.cpu.data        89080                       # number of StoreCondReq accesses(hits+misses)
system.cpu.dcache.StoreCondReq_accesses::total        89080                       # number of StoreCondReq accesses(hits+misses)
system.cpu.dcache.power_state.pwrStateResidencyTicks::UNDEFINED 218844628000                       # Cumulative time (in ticks) in various power states
system.cpu.dcache.tags.tagsinuse           510.775396                       # Cycle average of tags in use
system.cpu.dcache.tags.total_refs            35003307                       # Total number of references to valid blocks.
system.cpu.dcache.tags.sampled_refs             35476                       # Sample count of references to valid blocks.
system.cpu.dcache.tags.avg_refs            986.675696                       # Average number of references to valid blocks.
system.cpu.dcache.tags.warmup_cycle            330000                       # Cycle when the warmup percentage was hit.
system.cpu.dcache.tags.occ_blocks::.cpu.data   510.775396                       # Average occupied blocks per requestor
system.cpu.dcache.tags.occ_percent::.cpu.data     0.997608                       # Average percentage of cache occupancy
system.cpu.dcache.tags.occ_percent::total     0.997608                       # Average percentage of cache occupancy
system.cpu.dcache.tags.occ_task_id_blocks::1024          512                       # Occupied blocks per task id
system.cpu.dcache.tags.age_task_id_blocks_1024::0            1                       # Occupied blocks per task id
system.cpu.dcache.tags.age_task_id_blocks_1024::1            8                       # Occupied blocks per task id
system.cpu.dcache.tags.age_task_id_blocks_1024::2           82                       # Occupied blocks per task id
system.cpu.dcache.tags.age_task_id_blocks_1024::3          378                       # Occupied blocks per task id
system.cpu.dcache.tags.age_task_id_blocks_1024::4           43                       # Occupied blocks per task id
system.cpu.dcache.tags.occ_task_id_percent::1024            1                       # Percentage of cache occupancy per task id
system.cpu.dcache.tags.tag_accesses          70062314                       # Number of tag accesses
system.cpu.dcache.tags.data_accesses         70062314                       # Number of data accesses
system.cpu.dcache.tags.power_state.pwrStateResidencyTicks::UNDEFINED 218844628000                       # Cumulative time (in ticks) in various power states
system.cpu.dtb.instHits                             0                       # ITB inst hits
system.cpu.dtb.instMisses                           0                       # ITB inst misses
system.cpu.dtb.readHits                             0                       # DTB read hits
system.cpu.dtb.readMisses                           0                       # DTB read misses
system.cpu.dtb.writeHits                            0                       # DTB write hits
system.cpu.dtb.writeMisses                          0                       # DTB write misses
system.cpu.dtb.inserts                              0                       # Number of times an entry is inserted into the TLB
system.cpu.dtb.flushTlb                             0                       # Number of times complete TLB was flushed
system.cpu.dtb.flushTlbMva                          0                       # Number of times TLB was flushed by MVA
system.cpu.dtb.flushTlbMvaAsid                      0                       # Number of times TLB was flushed by MVA & ASID
system.cpu.dtb.flushTlbAsid                         0                       # Number of times TLB was flushed by ASID
system.cpu.dtb.flushedEntries                       0                       # Number of entries that have been flushed from TLB
system.cpu.dtb.alignFaults                          0                       # Number of TLB faults due to alignment restrictions
system.cpu.dtb.prefetchFaults                       0                       # Number of TLB faults due to prefetch
system.cpu.dtb.domainFaults                         0                       # Number of TLB faults due to domain restrictions
system.cpu.dtb.permsFaults                          0                       # Number of TLB faults due to permissions restrictions
system.cpu.dtb.readAccesses                         0                       # DTB read accesses
system.cpu.dtb.writeAccesses                        0                       # DTB write accesses
system.cpu.dtb.instAccesses                         0                       # ITB inst accesses
system.cpu.dtb.hits                                 0                       # Total TLB (inst and data) hits
system.cpu.dtb.misses                               0                       # Total TLB (inst and data) misses
system.cpu.dtb.accesses                             0                       # Total TLB (inst and data) accesses
system.cpu.dtb.stage2_mmu.stage2_tlb.instHits            0                       # ITB inst hits
system.cpu.dtb.stage2_mmu.stage2_tlb.instMisses            0                       # ITB inst misses
system.cpu.dtb.stage2_mmu.stage2_tlb.readHits            0                       # DTB read hits
system.cpu.dtb.stage2_mmu.stage2_tlb.readMisses            0                       # DTB read misses
system.cpu.dtb.stage2_mmu.stage2_tlb.writeHits            0                       # DTB write hits
system.cpu.dtb.stage2_mmu.stage2_tlb.writeMisses            0                       # DTB write misses
system.cpu.dtb.stage2_mmu.stage2_tlb.inserts            0                       # Number of times an entry is inserted into the TLB
system.cpu.dtb.stage2_mmu.stage2_tlb.flushTlb            0                       # Number of times complete TLB was flushed
system.cpu.dtb.stage2_mmu.stage2_tlb.flushTlbMva            0                       # Number of times TLB was flushed by MVA
system.cpu.dtb.stage2_mmu.stage2_tlb.flushTlbMvaAsid            0                       # Number of times TLB was flushed by MVA & ASID
system.cpu.dtb.stage2_mmu.stage2_tlb.flushTlbAsid            0                       # Number of times TLB was flushed by ASID
system.cpu.dtb.stage2_mmu.stage2_tlb.flushedEntries            0                       # Number of entries that have been flushed from TLB
system.cpu.dtb.stage2_mmu.stage2_tlb.alignFaults            0                       # Number of TLB faults due to alignment restrictions
system.cpu.dtb.stage2_mmu.stage2_tlb.prefetchFaults            0                       # Number of TLB faults due to prefetch
system.cpu.dtb.stage2_mmu.stage2_tlb.domainFaults            0                       # Number of TLB faults due to domain restrictions
system.cpu.dtb.stage2_mmu.stage2_tlb.permsFaults            0                       # Number of TLB faults due to permissions restrictions
system.cpu.dtb.stage2_mmu.stage2_tlb.readAccesses            0                       # DTB read accesses
system.cpu.dtb.stage2_mmu.stage2_tlb.writeAccesses            0                       # DTB write accesses
system.cpu.dtb.stage2_mmu.stage2_tlb.instAccesses            0                       # ITB inst accesses
system.cpu.dtb.stage2_mmu.stage2_tlb.hits            0                       # Total TLB (inst and data) hits
system.cpu.dtb.stage2_mmu.stage2_tlb.misses            0                       # Total TLB (inst and data) misses
system.cpu.dtb.stage2_mmu.stage2_tlb.accesses            0                       # Total TLB (inst and data) accesses
system.cpu.dtb.stage2_mmu.stage2_tlb.walker.walks            0                       # Table walker walks requested
system.cpu.dtb.stage2_mmu.stage2_tlb.walker.requestOrigin_Requested::Data            0                       # Table walker requests started/completed, data/inst
system.cpu.dtb.stage2_mmu.stage2_tlb.walker.requestOrigin_Requested::Inst            0                       # Table walker requests started/completed, data/inst
system.cpu.dtb.stage2_mmu.stage2_tlb.walker.requestOrigin_Requested::total            0                       # Table walker requests started/completed, data/inst
system.cpu.dtb.stage2_mmu.stage2_tlb.walker.requestOrigin_Completed::Data            0                       # Table walker requests started/completed, data/inst
system.cpu.dtb.stage2_mmu.stage2_tlb.walker.requestOrigin_Completed::Inst            0                       # Table walker requests started/completed, data/inst
system.cpu.dtb.stage2_mmu.stage2_tlb.walker.requestOrigin_Completed::total            0                       # Table walker requests started/completed, data/inst
system.cpu.dtb.stage2_mmu.stage2_tlb.walker.requestOrigin::total            0                       # Table walker requests started/completed, data/inst
system.cpu.dtb.stage2_mmu.stage2_tlb.walker.power_state.pwrStateResidencyTicks::UNDEFINED 218844628000                       # Cumulative time (in ticks) in various power states
system.cpu.dtb.walker.walks                         0                       # Table walker walks requested
system.cpu.dtb.walker.requestOrigin_Requested::Data            0                       # Table walker requests started/completed, data/inst
system.cpu.dtb.walker.requestOrigin_Requested::Inst            0                       # Table walker requests started/completed, data/inst
system.cpu.dtb.walker.requestOrigin_Requested::total            0                       # Table walker requests started/completed, data/inst
system.cpu.dtb.walker.requestOrigin_Completed::Data            0                       # Table walker requests started/completed, data/inst
system.cpu.dtb.walker.requestOrigin_Completed::Inst            0                       # Table walker requests started/completed, data/inst
system.cpu.dtb.walker.requestOrigin_Completed::total            0                       # Table walker requests started/completed, data/inst
system.cpu.dtb.walker.requestOrigin::total            0                       # Table walker requests started/completed, data/inst
system.cpu.dtb.walker.power_state.pwrStateResidencyTicks::UNDEFINED 218844628000                       # Cumulative time (in ticks) in various power states
system.cpu.fetch2.intInstructions            49216828                       # Number of integer instructions successfully decoded
system.cpu.fetch2.fpInstructions                    0                       # Number of floating point instructions successfully decoded
system.cpu.fetch2.vecInstructions                   0                       # Number of SIMD instructions successfully decoded
system.cpu.fetch2.loadInstructions           17099876                       # Number of memory load instructions successfully decoded
system.cpu.fetch2.storeInstructions           9758829                       # Number of memory store instructions successfully decoded
system.cpu.fetch2.amoInstructions                   0                       # Number of memory atomic instructions successfully decoded
system.cpu.icache.demand_hits::.cpu.inst     26890454                       # number of demand (read+write) hits
system.cpu.icache.demand_hits::total         26890454                       # number of demand (read+write) hits
system.cpu.icache.overall_hits::.cpu.inst     26890454                       # number of overall hits
system.cpu.icache.overall_hits::total        26890454                       # number of overall hits
system.cpu.icache.demand_misses::.cpu.inst          346                       # number of demand (read+write) misses
system.cpu.icache.demand_misses::total            346                       # number of demand (read+write) misses
system.cpu.icache.overall_misses::.cpu.inst          346                       # number of overall misses
system.cpu.icache.overall_misses::total           346                       # number of overall misses
system.cpu.icache.demand_miss_latency::.cpu.inst     52796000                       # number of demand (read+write) miss cycles
system.cpu.icache.demand_miss_latency::total     52796000                       # number of demand (read+write) miss cycles
system.cpu.icache.overall_miss_latency::.cpu.inst     52796000                       # number of overall miss cycles
system.cpu.icache.overall_miss_latency::total     52796000                       # number of overall miss cycles
system.cpu.icache.demand_accesses::.cpu.inst     26890800                       # number of demand (read+write) accesses
system.cpu.icache.demand_accesses::total     26890800                       # number of demand (read+write) accesses
system.cpu.icache.overall_accesses::.cpu.inst     26890800                       # number of overall (read+write) accesses
system.cpu.icache.overall_accesses::total     26890800                       # number of overall (read+write) accesses
system.cpu.icache.demand_miss_rate::.cpu.inst     0.000013                       # miss rate for demand accesses
system.cpu.icache.demand_miss_rate::total     0.000013                       # miss rate for demand accesses
system.cpu.icache.overall_miss_rate::.cpu.inst     0.000013                       # miss rate for overall accesses
system.cpu.icache.overall_miss_rate::total     0.000013                       # miss rate for overall accesses
system.cpu.icache.demand_avg_miss_latency::.cpu.inst 152589.595376                       # average overall miss latency
system.cpu.icache.demand_avg_miss_latency::total 152589.595376                       # average overall miss latency
system.cpu.icache.overall_avg_miss_latency::.cpu.inst 152589.595376                       # average overall miss latency
system.cpu.icache.overall_avg_miss_latency::total 152589.595376                       # average overall miss latency
system.cpu.icache.blocked_cycles::no_mshrs            0                       # number of cycles access was blocked
system.cpu.icache.blocked_cycles::no_targets            0                       # number of cycles access was blocked
system.cpu.icache.blocked::no_mshrs                 0                       # number of cycles access was blocked
system.cpu.icache.blocked::no_targets               0                       # number of cycles access was blocked
system.cpu.icache.avg_blocked_cycles::no_mshrs          nan                       # average number of cycles each access was blocked
system.cpu.icache.avg_blocked_cycles::no_targets          nan                       # average number of cycles each access was blocked
system.cpu.icache.writebacks::.writebacks            8                       # number of writebacks
system.cpu.icache.writebacks::total                 8                       # number of writebacks
system.cpu.icache.demand_mshr_misses::.cpu.inst          346                       # number of demand (read+write) MSHR misses
system.cpu.icache.demand_mshr_misses::total          346                       # number of demand (read+write) MSHR misses
system.cpu.icache.overall_mshr_misses::.cpu.inst          346                       # number of overall MSHR misses
system.cpu.icache.overall_mshr_misses::total          346                       # number of overall MSHR misses
system.cpu.icache.demand_mshr_miss_latency::.cpu.inst     51412000                       # number of demand (read+write) MSHR miss cycles
system.cpu.icache.demand_mshr_miss_latency::total     51412000                       # number of demand (read+write) MSHR miss cycles
system.cpu.icache.overall_mshr_miss_latency::.cpu.inst     51412000                       # number of overall MSHR miss cycles
system.cpu.icache.overall_mshr_miss_latency::total     51412000                       # number of overall MSHR miss cycles
system.cpu.icache.demand_mshr_miss_rate::.cpu.inst     0.000013                       # mshr miss rate for demand accesses
system.cpu.icache.demand_mshr_miss_rate::total     0.000013                       # mshr miss rate for demand accesses
system.cpu.icache.overall_mshr_miss_rate::.cpu.inst     0.000013                       # mshr miss rate for overall accesses
system.cpu.icache.overall_mshr_miss_rate::total     0.000013                       # mshr miss rate for overall accesses
system.cpu.icache.demand_avg_mshr_miss_latency::.cpu.inst 148589.595376                       # average overall mshr miss latency
system.cpu.icache.demand_avg_mshr_miss_latency::total 148589.595376                       # average overall mshr miss latency
system.cpu.icache.overall_avg_mshr_miss_latency::.cpu.inst 148589.595376                       # average overall mshr miss latency
system.cpu.icache.overall_avg_mshr_miss_latency::total 148589.595376                       # average overall mshr miss latency
system.cpu.icache.replacements                      8                       # number of replacements
system.cpu.icache.ReadReq_hits::.cpu.inst     26890454                       # number of ReadReq hits
system.cpu.icache.ReadReq_hits::total        26890454                       # number of ReadReq hits
system.cpu.icache.ReadReq_misses::.cpu.inst          346                       # number of ReadReq misses
system.cpu.icache.ReadReq_misses::total           346                       # number of ReadReq misses
system.cpu.icache.ReadReq_miss_latency::.cpu.inst     52796000                       # number of ReadReq miss cycles
system.cpu.icache.ReadReq_miss_latency::total     52796000                       # number of ReadReq miss cycles
system.cpu.icache.ReadReq_accesses::.cpu.inst     26890800                       # number of ReadReq accesses(hits+misses)
system.cpu.icache.ReadReq_accesses::total     26890800                       # number of ReadReq accesses(hits+misses)
system.cpu.icache.ReadReq_miss_rate::.cpu.inst     0.000013                       # miss rate for ReadReq accesses
system.cpu.icache.ReadReq_miss_rate::total     0.000013                       # miss rate for ReadReq accesses
system.cpu.icache.ReadReq_avg_miss_latency::.cpu.inst 152589.595376                       # average ReadReq miss latency
system.cpu.icache.ReadReq_avg_miss_latency::total 152589.595376                       # average ReadReq miss latency
system.cpu.icache.ReadReq_mshr_misses::.cpu.inst          346                       # number of ReadReq MSHR misses
system.cpu.icache.ReadReq_mshr_misses::total          346                       # number of ReadReq MSHR misses
system.cpu.icache.ReadReq_mshr_miss_latency::.cpu.inst     51412000                       # number of ReadReq MSHR miss cycles
system.cpu.icache.ReadReq_mshr_miss_latency::total     51412000                       # number of ReadReq MSHR miss cycles
system.cpu.icache.ReadReq_mshr_miss_rate::.cpu.inst     0.000013                       # mshr miss rate for ReadReq accesses
system.cpu.icache.ReadReq_mshr_miss_rate::total     0.000013                       # mshr miss rate for ReadReq accesses
system.cpu.icache.ReadReq_avg_mshr_miss_latency::.cpu.inst 148589.595376                       # average ReadReq mshr miss latency
system.cpu.icache.ReadReq_avg_mshr_miss_latency::total 148589.595376                       # average ReadReq mshr miss latency
system.cpu.icache.power_state.pwrStateResidencyTicks::UNDEFINED 218844628000                       # Cumulative time (in ticks) in various power states
system.cpu.icache.tags.tagsinuse           337.685307                       # Cycle average of tags in use
system.cpu.icache.tags.total_refs            26890800                       # Total number of references to valid blocks.
system.cpu.icache.tags.sampled_refs               346                       # Sample count of references to valid blocks.
system.cpu.icache.tags.avg_refs          77719.075145                       # Average number of references to valid blocks.
system.cpu.icache.tags.warmup_cycle            158000                       # Cycle when the warmup percentage was hit.
system.cpu.icache.tags.occ_blocks::.cpu.inst   337.685307                       # Average occupied blocks per requestor
system.cpu.icache.tags.occ_percent::.cpu.inst     0.329771                       # Average percentage of cache occupancy
system.cpu.icache.tags.occ_percent::total     0.329771                       # Average percentage of cache occupancy
system.cpu.icache.tags.occ_task_id_blocks::1024          338                       # Occupied blocks per task id
system.cpu.icache.tags.age_task_id_blocks_1024::4          338                       # Occupied blocks per task id
system.cpu.icache.tags.occ_task_id_percent::1024     0.330078                       # Percentage of cache occupancy per task id
system.cpu.icache.tags.tag_accesses          53781946                       # Number of tag accesses
system.cpu.icache.tags.data_accesses         53781946                       # Number of data accesses
system.cpu.icache.tags.power_state.pwrStateResidencyTicks::UNDEFINED 218844628000                       # Cumulative time (in ticks) in various power states
system.cpu.itb.instHits                             0                       # ITB inst hits
system.cpu.itb.instMisses                           0                       # ITB inst misses
system.cpu.itb.readHits                             0                       # DTB read hits
system.cpu.itb.readMisses                           0                       # DTB read misses
system.cpu.itb.writeHits                            0                       # DTB write hits
system.cpu.itb.writeMisses                          0                       # DTB write misses
system.cpu.itb.inserts                              0                       # Number of times an entry is inserted into the TLB
system.cpu.itb.flushTlb                             0                       # Number of times complete TLB was flushed
system.cpu.itb.flushTlbMva                          0                       # Number of times TLB was flushed by MVA
system.cpu.itb.flushTlbMvaAsid                      0                       # Number of times TLB was flushed by MVA & ASID
system.cpu.itb.flushTlbAsid                         0                       # Number of times TLB was flushed by ASID
system.cpu.itb.flushedEntries                       0                       # Number of entries that have been flushed from TLB
system.cpu.itb.alignFaults                          0                       # Number of TLB faults due to alignment restrictions
system.cpu.itb.prefetchFaults                       0                       # Number of TLB faults due to prefetch
system.cpu.itb.domainFaults                         0                       # Number of TLB faults due to domain restrictions
system.cpu.itb.permsFaults                          0                       # Number of TLB faults due to permissions restrictions
system.cpu.itb.readAccesses                         0                       # DTB read accesses
system.cpu.itb.writeAccesses                        0                       # DTB write accesses
system.cpu.itb.instAccesses                         0                       # ITB inst accesses
system.cpu.itb.hits                                 0                       # Total TLB (inst and data) hits
system.cpu.itb.misses                               0                       # Total TLB (inst and data) misses
system.cpu.itb.accesses                             0                       # Total TLB (inst and data) accesses
system.cpu.itb.stage2_mmu.stage2_tlb.instHits            0                       # ITB inst hits
system.cpu.itb.stage2_mmu.stage2_tlb.instMisses            0                       # ITB inst misses
system.cpu.itb.stage2_mmu.stage2_tlb.readHits            0                       # DTB read hits
system.cpu.itb.stage2_mmu.stage2_tlb.readMisses            0                       # DTB read misses
system.cpu.itb.stage2_mmu.stage2_tlb.writeHits            0                       # DTB write hits
system.cpu.itb.stage2_mmu.stage2_tlb.writeMisses            0                       # DTB write misses
system.cpu.itb.stage2_mmu.stage2_tlb.inserts            0                       # Number of times an entry is inserted into the TLB
system.cpu.itb.stage2_mmu.stage2_tlb.flushTlb            0                       # Number of times complete TLB was flushed
system.cpu.itb.stage2_mmu.stage2_tlb.flushTlbMva            0                       # Number of times TLB was flushed by MVA
system.cpu.itb.stage2_mmu.stage2_tlb.flushTlbMvaAsid            0                       # Number of times TLB was flushed by MVA & ASID
system.cpu.itb.stage2_mmu.stage2_tlb.flushTlbAsid            0                       # Number of times TLB was flushed by ASID
system.cpu.itb.stage2_mmu.stage2_tlb.flushedEntries            0                       # Number of entries that have been flushed from TLB
system.cpu.itb.stage2_mmu.stage2_tlb.alignFaults            0                       # Number of TLB faults due to alignment restrictions
system.cpu.itb.stage2_mmu.stage2_tlb.prefetchFaults            0                       # Number of TLB faults due to prefetch
system.cpu.itb.stage2_mmu.stage2_tlb.domainFaults            0                       # Number of TLB faults due to domain restrictions
system.cpu.itb.stage2_mmu.stage2_tlb.permsFaults            0                       # Number of TLB faults due to permissions restrictions
system.cpu.itb.stage2_mmu.stage2_tlb.readAccesses            0                       # DTB read accesses
system.cpu.itb.stage2_mmu.stage2_tlb.writeAccesses            0                       # DTB write accesses
system.cpu.itb.stage2_mmu.stage2_tlb.instAccesses            0                       # ITB inst accesses
system.cpu.itb.stage2_mmu.stage2_tlb.hits            0                       # Total TLB (inst and data) hits
system.cpu.itb.stage2_mmu.stage2_tlb.misses            0                       # Total TLB (inst and data) misses
system.cpu.itb.stage2_mmu.stage2_tlb.accesses            0                       # Total TLB (inst and data) accesses
system.cpu.itb.stage2_mmu.stage2_tlb.walker.walks            0                       # Table walker walks requested
system.cpu.itb.stage2_mmu.stage2_tlb.walker.requestOrigin_Requested::Data            0                       # Table walker requests started/completed, data/inst
system.cpu.itb.stage2_mmu.stage2_tlb.walker.requestOrigin_Requested::Inst            0                       # Table walker requests started/completed, data/inst
system.cpu.itb.stage2_mmu.stage2_tlb.walker.requestOrigin_Requested::total            0                       # Table walker requests started/completed, data/inst
system.cpu.itb.stage2_mmu.stage2_tlb.walker.requestOrigin_Completed::Data            0                       # Table walker requests started/completed, data/inst
system.cpu.itb.stage2_mmu.stage2_tlb.walker.requestOrigin_Completed::Inst            0                       # Table walker requests started/completed, data/inst
system.cpu.itb.stage2_mmu.stage2_tlb.walker.requestOrigin_Completed::total            0                       # Table walker requests started/completed, data/inst
system.cpu.itb.stage2_mmu.stage2_tlb.walker.requestOrigin::total            0                       # Table walker requests started/completed, data/inst
system.cpu.itb.stage2_mmu.stage2_tlb.walker.power_state.pwrStateResidencyTicks::UNDEFINED 218844628000                       # Cumulative time (in ticks) in various power states
system.cpu.itb.walker.walks                         0                       # Table walker walks requested
system.cpu.itb.walker.requestOrigin_Requested::Data            0                       # Table walker requests started/completed, data/inst
system.cpu.itb.walker.requestOrigin_Requested::Inst            0                       # Table walker requests started/completed, data/inst
system.cpu.itb.walker.requestOrigin_Requested::total            0                       # Table walker requests started/completed, data/inst
system.cpu.itb.walker.requestOrigin_Completed::Data            0                       # Table walker requests started/completed, data/inst
system.cpu.itb.walker.requestOrigin_Completed::Inst            0                       # Table walker requests started/completed, data/inst
system.cpu.itb.walker.requestOrigin_Completed::total            0                       # Table walker requests started/completed, data/inst
system.cpu.itb.walker.requestOrigin::total            0                       # Table walker requests started/completed, data/inst
system.cpu.itb.walker.power_state.pwrStateResidencyTicks::UNDEFINED 218844628000                       # Cumulative time (in ticks) in various power states
system.cpu.power_state.pwrStateResidencyTicks::ON 218844628000                       # Cumulative time (in ticks) in various power states
system.cpu.thread17522.numInsts             100000001                       # Number of Instructions committed
system.cpu.thread17522.numOps               109431277                       # Number of Ops committed
system.cpu.thread17522.numMemRefs                   0                       # Number of Memory References
system.cpu_clk_domain.clock                      2000                       # Clock period in ticks
system.cpu_voltage_domain.voltage                   1                       # Voltage in Volts
system.l2.demand_hits::.cpu.inst                   12                       # number of demand (read+write) hits
system.l2.demand_hits::.cpu.data                15923                       # number of demand (read+write) hits
system.l2.demand_hits::total                    15935                       # number of demand (read+write) hits
system.l2.overall_hits::.cpu.inst                  12                       # number of overall hits
system.l2.overall_hits::.cpu.data               15923                       # number of overall hits
system.l2.overall_hits::total                   15935                       # number of overall hits
system.l2.demand_misses::.cpu.inst                334                       # number of demand (read+write) misses
system.l2.demand_misses::.cpu.data              19553                       # number of demand (read+write) misses
system.l2.demand_misses::total                  19887                       # number of demand (read+write) misses
system.l2.overall_misses::.cpu.inst               334                       # number of overall misses
system.l2.overall_misses::.cpu.data             19553                       # number of overall misses
system.l2.overall_misses::total                 19887                       # number of overall misses
system.l2.demand_miss_latency::.cpu.inst     48778000                       # number of demand (read+write) miss cycles
system.l2.demand_miss_latency::.cpu.data   2978080000                       # number of demand (read+write) miss cycles
system.l2.demand_miss_latency::total       3026858000                       # number of demand (read+write) miss cycles
system.l2.overall_miss_latency::.cpu.inst     48778000                       # number of overall miss cycles
system.l2.overall_miss_latency::.cpu.data   2978080000                       # number of overall miss cycles
system.l2.overall_miss_latency::total      3026858000                       # number of overall miss cycles
system.l2.demand_accesses::.cpu.inst              346                       # number of demand (read+write) accesses
system.l2.demand_accesses::.cpu.data            35476                       # number of demand (read+write) accesses
system.l2.demand_accesses::total                35822                       # number of demand (read+write) accesses
system.l2.overall_accesses::.cpu.inst             346                       # number of overall (read+write) accesses
system.l2.overall_accesses::.cpu.data           35476                       # number of overall (read+write) accesses
system.l2.overall_accesses::total               35822                       # number of overall (read+write) accesses
system.l2.demand_miss_rate::.cpu.inst        0.965318                       # miss rate for demand accesses
system.l2.demand_miss_rate::.cpu.data        0.551161                       # miss rate for demand accesses
system.l2.demand_miss_rate::total            0.555162                       # miss rate for demand accesses
system.l2.overall_miss_rate::.cpu.inst       0.965318                       # miss rate for overall accesses
system.l2.overall_miss_rate::.cpu.data       0.551161                       # miss rate for overall accesses
system.l2.overall_miss_rate::total           0.555162                       # miss rate for overall accesses
system.l2.demand_avg_miss_latency::.cpu.inst 146041.916168                       # average overall miss latency
system.l2.demand_avg_miss_latency::.cpu.data 152308.085716                       # average overall miss latency
system.l2.demand_avg_miss_latency::total 152202.846080                       # average overall miss latency
system.l2.overall_avg_miss_latency::.cpu.inst 146041.916168                       # average overall miss latency
system.l2.overall_avg_miss_latency::.cpu.data 152308.085716                       # average overall miss latency
system.l2.overall_avg_miss_latency::total 152202.846080                       # average overall miss latency
system.l2.blocked_cycles::no_mshrs                  0                       # number of cycles access was blocked
system.l2.blocked_cycles::no_targets                0                       # number of cycles access was blocked
system.l2.blocked::no_mshrs                         0                       # number of cycles access was blocked
system.l2.blocked::no_targets                       0                       # number of cycles access was blocked
system.l2.avg_blocked_cycles::no_mshrs            nan                       # average number of cycles each access was blocked
system.l2.avg_blocked_cycles::no_targets          nan                       # average number of cycles each access was blocked
system.l2.demand_mshr_hits::.cpu.data               2                       # number of demand (read+write) MSHR hits
system.l2.demand_mshr_hits::total                   2                       # number of demand (read+write) MSHR hits
system.l2.overall_mshr_hits::.cpu.data              2                       # number of overall MSHR hits
system.l2.overall_mshr_hits::total                  2                       # number of overall MSHR hits
system.l2.demand_mshr_misses::.cpu.inst           334                       # number of demand (read+write) MSHR misses
system.l2.demand_mshr_misses::.cpu.data         19551                       # number of demand (read+write) MSHR misses
system.l2.demand_mshr_misses::total             19885                       # number of demand (read+write) MSHR misses
system.l2.overall_mshr_misses::.cpu.inst          334                       # number of overall MSHR misses
system.l2.overall_mshr_misses::.cpu.data        19551                       # number of overall MSHR misses
system.l2.overall_mshr_misses::total            19885                       # number of overall MSHR misses
system.l2.demand_mshr_miss_latency::.cpu.inst     35411000                       # number of demand (read+write) MSHR miss cycles
system.l2.demand_mshr_miss_latency::.cpu.data   2195438000                       # number of demand (read+write) MSHR miss cycles
system.l2.demand_mshr_miss_latency::total   2230849000                       # number of demand (read+write) MSHR miss cycles
system.l2.overall_mshr_miss_latency::.cpu.inst     35411000                       # number of overall MSHR miss cycles
system.l2.overall_mshr_miss_latency::.cpu.data   2195438000                       # number of overall MSHR miss cycles
system.l2.overall_mshr_miss_latency::total   2230849000                       # number of overall MSHR miss cycles
system.l2.demand_mshr_miss_rate::.cpu.inst     0.965318                       # mshr miss rate for demand accesses
system.l2.demand_mshr_miss_rate::.cpu.data     0.551105                       # mshr miss rate for demand accesses
system.l2.demand_mshr_miss_rate::total       0.555106                       # mshr miss rate for demand accesses
system.l2.overall_mshr_miss_rate::.cpu.inst     0.965318                       # mshr miss rate for overall accesses
system.l2.overall_mshr_miss_rate::.cpu.data     0.551105                       # mshr miss rate for overall accesses
system.l2.overall_mshr_miss_rate::total      0.555106                       # mshr miss rate for overall accesses
system.l2.demand_avg_mshr_miss_latency::.cpu.inst 106020.958084                       # average overall mshr miss latency
system.l2.demand_avg_mshr_miss_latency::.cpu.data 112292.875045                       # average overall mshr miss latency
system.l2.demand_avg_mshr_miss_latency::total 112187.528288                       # average overall mshr miss latency
system.l2.overall_avg_mshr_miss_latency::.cpu.inst 106020.958084                       # average overall mshr miss latency
system.l2.overall_avg_mshr_miss_latency::.cpu.data 112292.875045                       # average overall mshr miss latency
system.l2.overall_avg_mshr_miss_latency::total 112187.528288                       # average overall mshr miss latency
system.l2.replacements                              0                       # number of replacements
system.l2.WritebackDirty_hits::.writebacks        32449                       # number of WritebackDirty hits
system.l2.WritebackDirty_hits::total            32449                       # number of WritebackDirty hits
system.l2.WritebackDirty_accesses::.writebacks        32449                       # number of WritebackDirty accesses(hits+misses)
system.l2.WritebackDirty_accesses::total        32449                       # number of WritebackDirty accesses(hits+misses)
system.l2.WritebackClean_hits::.writebacks            7                       # number of WritebackClean hits
system.l2.WritebackClean_hits::total                7                       # number of WritebackClean hits
system.l2.WritebackClean_accesses::.writebacks            7                       # number of WritebackClean accesses(hits+misses)
system.l2.WritebackClean_accesses::total            7                       # number of WritebackClean accesses(hits+misses)
system.l2.ReadExReq_hits::.cpu.data                39                       # number of ReadExReq hits
system.l2.ReadExReq_hits::total                    39                       # number of ReadExReq hits
system.l2.ReadExReq_misses::.cpu.data           19414                       # number of ReadExReq misses
system.l2.ReadExReq_misses::total               19414                       # number of ReadExReq misses
system.l2.ReadExReq_miss_latency::.cpu.data   2956744000                       # number of ReadExReq miss cycles
system.l2.ReadExReq_miss_latency::total    2956744000                       # number of ReadExReq miss cycles
system.l2.ReadExReq_accesses::.cpu.data         19453                       # number of ReadExReq accesses(hits+misses)
system.l2.ReadExReq_accesses::total             19453                       # number of ReadExReq accesses(hits+misses)
system.l2.ReadExReq_miss_rate::.cpu.data     0.997995                       # miss rate for ReadExReq accesses
system.l2.ReadExReq_miss_rate::total         0.997995                       # miss rate for ReadExReq accesses
system.l2.ReadExReq_avg_miss_latency::.cpu.data 152299.577624                       # average ReadExReq miss latency
system.l2.ReadExReq_avg_miss_latency::total 152299.577624                       # average ReadExReq miss latency
system.l2.ReadExReq_mshr_misses::.cpu.data        19414                       # number of ReadExReq MSHR misses
system.l2.ReadExReq_mshr_misses::total          19414                       # number of ReadExReq MSHR misses
system.l2.ReadExReq_mshr_miss_latency::.cpu.data   2179841000                       # number of ReadExReq MSHR miss cycles
system.l2.ReadExReq_mshr_miss_latency::total   2179841000                       # number of ReadExReq MSHR miss cycles
system.l2.ReadExReq_mshr_miss_rate::.cpu.data     0.997995                       # mshr miss rate for ReadExReq accesses
system.l2.ReadExReq_mshr_miss_rate::total     0.997995                       # mshr miss rate for ReadExReq accesses
system.l2.ReadExReq_avg_mshr_miss_latency::.cpu.data 112281.909962                       # average ReadExReq mshr miss latency
system.l2.ReadExReq_avg_mshr_miss_latency::total 112281.909962                       # average ReadExReq mshr miss latency
system.l2.ReadCleanReq_hits::.cpu.inst             12                       # number of ReadCleanReq hits
system.l2.ReadCleanReq_hits::total                 12                       # number of ReadCleanReq hits
system.l2.ReadCleanReq_misses::.cpu.inst          334                       # number of ReadCleanReq misses
system.l2.ReadCleanReq_misses::total              334                       # number of ReadCleanReq misses
system.l2.ReadCleanReq_miss_latency::.cpu.inst     48778000                       # number of ReadCleanReq miss cycles
system.l2.ReadCleanReq_miss_latency::total     48778000                       # number of ReadCleanReq miss cycles
system.l2.ReadCleanReq_accesses::.cpu.inst          346                       # number of ReadCleanReq accesses(hits+misses)
system.l2.ReadCleanReq_accesses::total            346                       # number of ReadCleanReq accesses(hits+misses)
system.l2.ReadCleanReq_miss_rate::.cpu.inst     0.965318                       # miss rate for ReadCleanReq accesses
system.l2.ReadCleanReq_miss_rate::total      0.965318                       # miss rate for ReadCleanReq accesses
system.l2.ReadCleanReq_avg_miss_latency::.cpu.inst 146041.916168                       # average ReadCleanReq miss latency
system.l2.ReadCleanReq_avg_miss_latency::total 146041.916168                       # average ReadCleanReq miss latency
system.l2.ReadCleanReq_mshr_misses::.cpu.inst          334                       # number of ReadCleanReq MSHR misses
system.l2.ReadCleanReq_mshr_misses::total          334                       # number of ReadCleanReq MSHR misses
system.l2.ReadCleanReq_mshr_miss_latency::.cpu.inst     35411000                       # number of ReadCleanReq MSHR miss cycles
system.l2.ReadCleanReq_mshr_miss_latency::total     35411000                       # number of ReadCleanReq MSHR miss cycles
system.l2.ReadCleanReq_mshr_miss_rate::.cpu.inst     0.965318                       # mshr miss rate for ReadCleanReq accesses
system.l2.ReadCleanReq_mshr_miss_rate::total     0.965318                       # mshr miss rate for ReadCleanReq accesses
system.l2.ReadCleanReq_avg_mshr_miss_latency::.cpu.inst 106020.958084                       # average ReadCleanReq mshr miss latency
system.l2.ReadCleanReq_avg_mshr_miss_latency::total 106020.958084                       # average ReadCleanReq mshr miss latency
system.l2.ReadSharedReq_hits::.cpu.data         15884                       # number of ReadSharedReq hits
system.l2.ReadSharedReq_hits::total             15884                       # number of ReadSharedReq hits
system.l2.ReadSharedReq_misses::.cpu.data          139                       # number of ReadSharedReq misses
system.l2.ReadSharedReq_misses::total             139                       # number of ReadSharedReq misses
system.l2.ReadSharedReq_miss_latency::.cpu.data     21336000                       # number of ReadSharedReq miss cycles
system.l2.ReadSharedReq_miss_latency::total     21336000                       # number of ReadSharedReq miss cycles
system.l2.ReadSharedReq_accesses::.cpu.data        16023                       # number of ReadSharedReq accesses(hits+misses)
system.l2.ReadSharedReq_accesses::total         16023                       # number of ReadSharedReq accesses(hits+misses)
system.l2.ReadSharedReq_miss_rate::.cpu.data     0.008675                       # miss rate for ReadSharedReq accesses
system.l2.ReadSharedReq_miss_rate::total     0.008675                       # miss rate for ReadSharedReq accesses
system.l2.ReadSharedReq_avg_miss_latency::.cpu.data 153496.402878                       # average ReadSharedReq miss latency
system.l2.ReadSharedReq_avg_miss_latency::total 153496.402878                       # average ReadSharedReq miss latency
system.l2.ReadSharedReq_mshr_hits::.cpu.data            2                       # number of ReadSharedReq MSHR hits
system.l2.ReadSharedReq_mshr_hits::total            2                       # number of ReadSharedReq MSHR hits
system.l2.ReadSharedReq_mshr_misses::.cpu.data          137                       # number of ReadSharedReq MSHR misses
system.l2.ReadSharedReq_mshr_misses::total          137                       # number of ReadSharedReq MSHR misses
system.l2.ReadSharedReq_mshr_miss_latency::.cpu.data     15597000                       # number of ReadSharedReq MSHR miss cycles
system.l2.ReadSharedReq_mshr_miss_latency::total     15597000                       # number of ReadSharedReq MSHR miss cycles
system.l2.ReadSharedReq_mshr_miss_rate::.cpu.data     0.008550                       # mshr miss rate for ReadSharedReq accesses
system.l2.ReadSharedReq_mshr_miss_rate::total     0.008550                       # mshr miss rate for ReadSharedReq accesses
system.l2.ReadSharedReq_avg_mshr_miss_latency::.cpu.data 113846.715328                       # average ReadSharedReq mshr miss latency
system.l2.ReadSharedReq_avg_mshr_miss_latency::total 113846.715328                       # average ReadSharedReq mshr miss latency
system.l2.power_state.pwrStateResidencyTicks::UNDEFINED 218844628000                       # Cumulative time (in ticks) in various power states
system.l2.tags.tagsinuse                 13921.229067                       # Cycle average of tags in use
system.l2.tags.total_refs                       70713                       # Total number of references to valid blocks.
system.l2.tags.sampled_refs                     19885                       # Sample count of references to valid blocks.
system.l2.tags.avg_refs                      3.556098                       # Average number of references to valid blocks.
system.l2.tags.warmup_cycle                    116000                       # Cycle when the warmup percentage was hit.
system.l2.tags.occ_blocks::.cpu.inst       333.804030                       # Average occupied blocks per requestor
system.l2.tags.occ_blocks::.cpu.data     13587.425037                       # Average occupied blocks per requestor
system.l2.tags.occ_percent::.cpu.inst        0.010187                       # Average percentage of cache occupancy
system.l2.tags.occ_percent::.cpu.data        0.414655                       # Average percentage of cache occupancy
system.l2.tags.occ_percent::total            0.424842                       # Average percentage of cache occupancy
system.l2.tags.occ_task_id_blocks::1024         19885                       # Occupied blocks per task id
system.l2.tags.age_task_id_blocks_1024::0            1                       # Occupied blocks per task id
system.l2.tags.age_task_id_blocks_1024::1            4                       # Occupied blocks per task id
system.l2.tags.age_task_id_blocks_1024::2           45                       # Occupied blocks per task id
system.l2.tags.age_task_id_blocks_1024::3          444                       # Occupied blocks per task id
system.l2.tags.age_task_id_blocks_1024::4        19391                       # Occupied blocks per task id
system.l2.tags.occ_task_id_percent::1024     0.606842                       # Percentage of cache occupancy per task id
system.l2.tags.tag_accesses                     90600                       # Number of tag accesses
system.l2.tags.data_accesses                    90600                       # Number of data accesses
system.l2.tags.power_state.pwrStateResidencyTicks::UNDEFINED 218844628000                       # Cumulative time (in ticks) in various power states
system.mem_ctrls.avgPriority_.cpu.inst::samples       668.00                       # Average QoS priority value for accepted requests
system.mem_ctrls.avgPriority_.cpu.data::samples     39102.00                       # Average QoS priority value for accepted requests
system.mem_ctrls.priorityMinLatency      0.000000018750                       # per QoS priority minimum request to response latency (s)
system.mem_ctrls.priorityMaxLatency      0.000000583000                       # per QoS priority maximum request to response latency (s)
system.mem_ctrls.numReadWriteTurnArounds            0                       # Number of turnarounds from READ to WRITE
system.mem_ctrls.numWriteReadTurnArounds            0                       # Number of turnarounds from WRITE to READ
system.mem_ctrls.numStayReadState              115865                       # Number of times bus staying in READ state
system.mem_ctrls.numStayWriteState                  0                       # Number of times bus staying in WRITE state
system.mem_ctrls.readReqs                       19885                       # Number of read requests accepted
system.mem_ctrls.writeReqs                          0                       # Number of write requests accepted
system.mem_ctrls.readBursts                     39770                       # Number of controller read bursts, including those serviced by the write queue
system.mem_ctrls.writeBursts                        0                       # Number of controller write bursts, including those merged in the write queue
system.mem_ctrls.servicedByWrQ                      0                       # Number of controller read bursts serviced by the write queue
system.mem_ctrls.mergedWrBursts                     0                       # Number of controller write bursts merged with an existing one
system.mem_ctrls.neitherReadNorWriteReqs            0                       # Number of requests that are neither read nor write
system.mem_ctrls.avgRdQLen                       2.00                       # Average read queue length when enqueuing
system.mem_ctrls.avgWrQLen                       0.00                       # Average write queue length when enqueuing
system.mem_ctrls.numRdRetry                         0                       # Number of times read queue was full causing retry
system.mem_ctrls.numWrRetry                         0                       # Number of times write queue was full causing retry
system.mem_ctrls.readPktSize::0                     0                       # Read request sizes (log2)
system.mem_ctrls.readPktSize::1                     0                       # Read request sizes (log2)
system.mem_ctrls.readPktSize::2                     0                       # Read request sizes (log2)
system.mem_ctrls.readPktSize::3                     0                       # Read request sizes (log2)
system.mem_ctrls.readPktSize::4                     0                       # Read request sizes (log2)
system.mem_ctrls.readPktSize::5                     0                       # Read request sizes (log2)
system.mem_ctrls.readPktSize::6                 39770                       # Read request sizes (log2)
system.mem_ctrls.readPktSize::7                     0                       # Read request sizes (log2)
system.mem_ctrls.writePktSize::0                    0                       # Write request sizes (log2)
system.mem_ctrls.writePktSize::1                    0                       # Write request sizes (log2)
system.mem_ctrls.writePktSize::2                    0                       # Write request sizes (log2)
system.mem_ctrls.writePktSize::3                    0                       # Write request sizes (log2)
system.mem_ctrls.writePktSize::4                    0                       # Write request sizes (log2)
system.mem_ctrls.writePktSize::5                    0                       # Write request sizes (log2)
system.mem_ctrls.writePktSize::6                    0                       # Write request sizes (log2)
system.mem_ctrls.writePktSize::7                    0                       # Write request sizes (log2)
system.mem_ctrls.rdQLenPdf::0                   19845                       # What read queue length does an incoming req see
system.mem_ctrls.rdQLenPdf::1                   19850                       # What read queue length does an incoming req see
system.mem_ctrls.rdQLenPdf::2                      38                       # What read queue length does an incoming req see
system.mem_ctrls.rdQLenPdf::3                      34                       # What read queue length does an incoming req see
system.mem_ctrls.rdQLenPdf::4                       2                       # What read queue length does an incoming req see
system.mem_ctrls.rdQLenPdf::5                       1                       # What read queue length does an incoming req see
system.mem_ctrls.rdQLenPdf::6                       0                       # What read queue length does an incoming req see
system.mem_ctrls.rdQLenPdf::7                       0                       # What read queue length does an incoming req see
system.mem_ctrls.rdQLenPdf::8                       0                       # What read queue length does an incoming req see
system.mem_ctrls.rdQLenPdf::9                       0                       # What read queue length does an incoming req see
system.mem_ctrls.rdQLenPdf::10                      0                       # What read queue length does an incoming req see
system.mem_ctrls.rdQLenPdf::11                      0                       # What read queue length does an incoming req see
system.mem_ctrls.rdQLenPdf::12                      0                       # What read queue length does an incoming req see
system.mem_ctrls.rdQLenPdf::13                      0                       # What read queue length does an incoming req see
[...]
system.mem_ctrls.dram.bw_read::.cpu.inst       195353                       # Total read bandwidth from this memory (bytes/s)
system.mem_ctrls.dram.bw_read::.cpu.data     11435181                       # Total read bandwidth from this memory (bytes/s)
system.mem_ctrls.dram.bw_read::total         11630535                       # Total read bandwidth from this memory (bytes/s)
system.mem_ctrls.dram.bw_inst_read::.cpu.inst       195353                       # Instruction read bandwidth from this memory (bytes/s)
system.mem_ctrls.dram.bw_inst_read::total       195353                       # Instruction read bandwidth from this memory (bytes/s)
system.mem_ctrls.dram.bw_total::.cpu.inst       195353                       # Total bandwidth to/from this memory (bytes/s)
system.mem_ctrls.dram.bw_total::.cpu.data     11435181                       # Total bandwidth to/from this memory (bytes/s)
system.mem_ctrls.dram.bw_total::total        11630535                       # Total bandwidth to/from this memory (bytes/s)
system.mem_ctrls.dram.readBursts                39770                       # Number of DRAM read bursts
system.mem_ctrls.dram.writeBursts                   0                       # Number of DRAM write bursts
system.mem_ctrls.dram.perBankRdBursts::0         2510                       # Per bank write bursts
system.mem_ctrls.dram.perBankRdBursts::1         2502                       # Per bank write bursts
system.mem_ctrls.dram.perBankRdBursts::2         2476                       # Per bank write bursts
system.mem_ctrls.dram.perBankRdBursts::3         2612                       # Per bank write bursts
system.mem_ctrls.dram.perBankRdBursts::4         2440                       # Per bank write bursts
system.mem_ctrls.dram.perBankRdBursts::5         2372                       # Per bank write bursts
system.mem_ctrls.dram.perBankRdBursts::6         2432                       # Per bank write bursts
system.mem_ctrls.dram.perBankRdBursts::7         2444                       # Per bank write bursts
system.mem_ctrls.dram.perBankRdBursts::8         2466                       # Per bank write bursts
system.mem_ctrls.dram.perBankRdBursts::9         2496                       # Per bank write bursts
system.mem_ctrls.dram.perBankRdBursts::10         2486                       # Per bank write bursts
system.mem_ctrls.dram.perBankRdBursts::11         2522                       # Per bank write bursts
system.mem_ctrls.dram.perBankRdBursts::12         2506                       # Per bank write bursts
system.mem_ctrls.dram.perBankRdBursts::13         2472                       # Per bank write bursts
system.mem_ctrls.dram.perBankRdBursts::14         2528                       # Per bank write bursts
system.mem_ctrls.dram.perBankRdBursts::15         2506                       # Per bank write bursts
system.mem_ctrls.dram.perBankWrBursts::0            0                       # Per bank write bursts
system.mem_ctrls.dram.perBankWrBursts::1            0                       # Per bank write bursts
system.mem_ctrls.dram.perBankWrBursts::2            0                       # Per bank write bursts
system.mem_ctrls.dram.perBankWrBursts::3            0                       # Per bank write bursts
system.mem_ctrls.dram.perBankWrBursts::4            0                       # Per bank write bursts
system.mem_ctrls.dram.perBankWrBursts::5            0                       # Per bank write bursts
system.mem_ctrls.dram.perBankWrBursts::6            0                       # Per bank write bursts
system.mem_ctrls.dram.perBankWrBursts::7            0                       # Per bank write bursts
system.mem_ctrls.dram.perBankWrBursts::8            0                       # Per bank write bursts
system.mem_ctrls.dram.perBankWrBursts::9            0                       # Per bank write bursts
system.mem_ctrls.dram.perBankWrBursts::10            0                       # Per bank write bursts
system.mem_ctrls.dram.perBankWrBursts::11            0                       # Per bank write bursts
system.mem_ctrls.dram.perBankWrBursts::12            0                       # Per bank write bursts
system.mem_ctrls.dram.perBankWrBursts::13            0                       # Per bank write bursts
system.mem_ctrls.dram.perBankWrBursts::14            0                       # Per bank write bursts
system.mem_ctrls.dram.perBankWrBursts::15            0                       # Per bank write bursts
system.mem_ctrls.dram.totQLat               735174000                       # Total ticks spent queuing
system.mem_ctrls.dram.totBusLat             198850000                       # Total ticks spent in databus transfers
system.mem_ctrls.dram.totMemAccLat         1480861500                       # Total ticks spent from burst creation until serviced by the DRAM
system.mem_ctrls.dram.avgQLat                18485.64                       # Average queueing delay per DRAM burst
system.mem_ctrls.dram.avgBusLat               5000.00                       # Average bus latency per DRAM burst
system.mem_ctrls.dram.avgMemAccLat           37235.64                       # Average memory access latency per DRAM burst
system.mem_ctrls.dram.readRowHits               23460                       # Number of row buffer hits during reads
system.mem_ctrls.dram.writeRowHits                  0                       # Number of row buffer hits during writes
system.mem_ctrls.dram.readRowHitRate            58.99                       # Row buffer hit rate for reads
system.mem_ctrls.dram.writeRowHitRate             nan                       # Row buffer hit rate for writes
system.mem_ctrls.dram.bytesPerActivate::samples        16310                       # Bytes accessed per row activation
system.mem_ctrls.dram.bytesPerActivate::mean   156.056407                       # Bytes accessed per row activation
system.mem_ctrls.dram.bytesPerActivate::gmean   146.764469                       # Bytes accessed per row activation
system.mem_ctrls.dram.bytesPerActivate::stdev    70.556230                       # Bytes accessed per row activation
system.mem_ctrls.dram.bytesPerActivate::128-255        13511     82.84%     82.84% # Bytes accessed per row activation
system.mem_ctrls.dram.bytesPerActivate::256-383         2150     13.18%     96.02% # Bytes accessed per row activation
system.mem_ctrls.dram.bytesPerActivate::384-511          605      3.71%     99.73% # Bytes accessed per row activation
system.mem_ctrls.dram.bytesPerActivate::512-639           13      0.08%     99.81% # Bytes accessed per row activation
system.mem_ctrls.dram.bytesPerActivate::640-767            9      0.06%     99.87% # Bytes accessed per row activation
system.mem_ctrls.dram.bytesPerActivate::768-895            6      0.04%     99.90% # Bytes accessed per row activation
system.mem_ctrls.dram.bytesPerActivate::896-1023            2      0.01%     99.91% # Bytes accessed per row activation
system.mem_ctrls.dram.bytesPerActivate::1024-1151           14      0.09%    100.00% # Bytes accessed per row activation
system.mem_ctrls.dram.bytesPerActivate::total        16310                       # Bytes accessed per row activation
system.mem_ctrls.dram.bytesRead               2545280                       # Total number of bytes read from DRAM
system.mem_ctrls.dram.bytesWritten                  0                       # Total number of bytes written to DRAM
system.mem_ctrls.dram.avgRdBW               11.630535                       # Average DRAM read bandwidth in MiBytes/s
system.mem_ctrls.dram.avgWrBW                       0                       # Average DRAM write bandwidth in MiBytes/s
system.mem_ctrls.dram.peakBW                 12800.00                       # Theoretical peak bandwidth in MiByte/s
system.mem_ctrls.dram.busUtil                    0.09                       # Data bus utilization in percentage
system.mem_ctrls.dram.busUtilRead                0.09                       # Data bus utilization in percentage for reads
system.mem_ctrls.dram.busUtilWrite               0.00                       # Data bus utilization in percentage for writes
system.mem_ctrls.dram.pageHitRate               58.99                       # Row buffer hit rate, read and write combined
system.mem_ctrls.dram.power_state.pwrStateResidencyTicks::UNDEFINED 218844628000                       # Cumulative time (in ticks) in various power states
system.mem_ctrls.dram.rank0.actEnergy        58576560                       # Energy for activate commands per rank (pJ)
system.mem_ctrls.dram.rank0.preEnergy        31134180                       # Energy for precharge commands per rank (pJ)
system.mem_ctrls.dram.rank0.readEnergy      141286320                       # Energy for read commands per rank (pJ)
system.mem_ctrls.dram.rank0.writeEnergy             0                       # Energy for write commands per rank (pJ)
system.mem_ctrls.dram.rank0.refreshEnergy 17275071840.000004                       # Energy for refresh commands per rank (pJ)
system.mem_ctrls.dram.rank0.actBackEnergy  16516937310                       # Energy for active background per rank (pJ)
system.mem_ctrls.dram.rank0.preBackEnergy  70127337600                       # Energy for precharge background per rank (pJ)
system.mem_ctrls.dram.rank0.actPowerDownEnergy            0                       # Energy for active power-down per rank (pJ)
system.mem_ctrls.dram.rank0.prePowerDownEnergy            0                       # Energy for precharge power-down per rank (pJ)
system.mem_ctrls.dram.rank0.selfRefreshEnergy            0                       # Energy for self refresh per rank (pJ)
system.mem_ctrls.dram.rank0.totalEnergy  104150343810                       # Total energy per rank (pJ)
system.mem_ctrls.dram.rank0.averagePower   475.909986                       # Core power per rank (mW)
system.mem_ctrls.dram.rank0.totalIdleTime            0                       # Total Idle time Per DRAM Rank
system.mem_ctrls.dram.rank0.pwrStateTime::IDLE 182140476500                       # Time in different power states
system.mem_ctrls.dram.rank0.pwrStateTime::REF   7307560000                       # Time in different power states
system.mem_ctrls.dram.rank0.pwrStateTime::SREF            0                       # Time in different power states
system.mem_ctrls.dram.rank0.pwrStateTime::PRE_PDN            0                       # Time in different power states
system.mem_ctrls.dram.rank0.pwrStateTime::ACT  29396591500                       # Time in different power states
system.mem_ctrls.dram.rank0.pwrStateTime::ACT_PDN            0                       # Time in different power states
system.mem_ctrls.dram.rank1.actEnergy        57876840                       # Energy for activate commands per rank (pJ)
system.mem_ctrls.dram.rank1.preEnergy        30762270                       # Energy for precharge commands per rank (pJ)
system.mem_ctrls.dram.rank1.readEnergy      142671480                       # Energy for read commands per rank (pJ)
system.mem_ctrls.dram.rank1.writeEnergy             0                       # Energy for write commands per rank (pJ)
system.mem_ctrls.dram.rank1.refreshEnergy 17275071840.000004                       # Energy for refresh commands per rank (pJ)
system.mem_ctrls.dram.rank1.actBackEnergy  16478395620                       # Energy for active background per rank (pJ)
system.mem_ctrls.dram.rank1.preBackEnergy  70159793760                       # Energy for precharge background per rank (pJ)
system.mem_ctrls.dram.rank1.actPowerDownEnergy            0                       # Energy for active power-down per rank (pJ)
system.mem_ctrls.dram.rank1.prePowerDownEnergy            0                       # Energy for precharge power-down per rank (pJ)
system.mem_ctrls.dram.rank1.selfRefreshEnergy            0                       # Energy for self refresh per rank (pJ)
system.mem_ctrls.dram.rank1.totalEnergy  104144571810                       # Total energy per rank (pJ)
system.mem_ctrls.dram.rank1.averagePower   475.883611                       # Core power per rank (mW)
system.mem_ctrls.dram.rank1.totalIdleTime            0                       # Total Idle time Per DRAM Rank
system.mem_ctrls.dram.rank1.pwrStateTime::IDLE 182226343500                       # Time in different power states
system.mem_ctrls.dram.rank1.pwrStateTime::REF   7307560000                       # Time in different power states
system.mem_ctrls.dram.rank1.pwrStateTime::SREF            0                       # Time in different power states
system.mem_ctrls.dram.rank1.pwrStateTime::PRE_PDN            0                       # Time in different power states
system.mem_ctrls.dram.rank1.pwrStateTime::ACT  29310724500                       # Time in different power states
system.mem_ctrls.dram.rank1.pwrStateTime::ACT_PDN            0                       # Time in different power states
system.mem_ctrls.power_state.pwrStateResidencyTicks::UNDEFINED 218844628000                       # Cumulative time (in ticks) in various power states
system.membus.trans_dist::ReadResp                471                       # Transaction distribution
system.membus.trans_dist::ReadExReq             19414                       # Transaction distribution
system.membus.trans_dist::ReadExResp            19414                       # Transaction distribution
system.membus.trans_dist::ReadSharedReq           471                       # Transaction distribution
system.membus.pkt_count_system.l2.mem_side_port::system.mem_ctrls.port        39770                       # Packet count per connected requestor and responder (bytes)
system.membus.pkt_count::total                  39770                       # Packet count per connected requestor and responder (bytes)
system.membus.pkt_size_system.l2.mem_side_port::system.mem_ctrls.port      2545280                       # Cumulative packet size per connected requestor and responder (bytes)
system.membus.pkt_size::total                 2545280                       # Cumulative packet size per connected requestor and responder (bytes)
system.membus.snoops                                0                       # Total snoops (count)
system.membus.snoopTraffic                          0                       # Total snoop traffic (bytes)
system.membus.snoop_fanout::samples             19885                       # Request fanout histogram
system.membus.snoop_fanout::mean                    0                       # Request fanout histogram
system.membus.snoop_fanout::stdev                   0                       # Request fanout histogram
system.membus.snoop_fanout::underflows              0      0.00%      0.00% # Request fanout histogram
system.membus.snoop_fanout::0                   19885    100.00%    100.00% # Request fanout histogram
system.membus.snoop_fanout::1                       0      0.00%    100.00% # Request fanout histogram
system.membus.snoop_fanout::overflows               0      0.00%    100.00% # Request fanout histogram
system.membus.snoop_fanout::min_value               0                       # Request fanout histogram
system.membus.snoop_fanout::max_value               0                       # Request fanout histogram
system.membus.snoop_fanout::total               19885                       # Request fanout histogram
system.membus.power_state.pwrStateResidencyTicks::UNDEFINED 218844628000                       # Cumulative time (in ticks) in various power states
system.membus.reqLayer0.occupancy            19885000                       # Layer occupancy (ticks)
system.membus.reqLayer0.utilization               0.0                       # Layer utilization (%)
system.membus.respLayer1.occupancy          187950750                       # Layer occupancy (ticks)
system.membus.respLayer1.utilization              0.1                       # Layer utilization (%)
system.tol2bus.trans_dist::ReadResp             16369                       # Transaction distribution
system.tol2bus.trans_dist::WritebackDirty        32449                       # Transaction distribution
system.tol2bus.trans_dist::WritebackClean            8                       # Transaction distribution
system.tol2bus.trans_dist::CleanEvict            2515                       # Transaction distribution
system.tol2bus.trans_dist::ReadExReq            19453                       # Transaction distribution
system.tol2bus.trans_dist::ReadExResp           19453                       # Transaction distribution
system.tol2bus.trans_dist::ReadCleanReq           346                       # Transaction distribution
system.tol2bus.trans_dist::ReadSharedReq        16023                       # Transaction distribution
system.tol2bus.pkt_count_system.cpu.icache.mem_side_port::system.l2.cpu_side_port          700                       # Packet count per connected requestor and responder (bytes)
system.tol2bus.pkt_count_system.cpu.dcache.mem_side_port::system.l2.cpu_side_port       105916                       # Packet count per connected requestor and responder (bytes)
system.tol2bus.pkt_count::total                106616                       # Packet count per connected requestor and responder (bytes)
system.tol2bus.pkt_size_system.cpu.icache.mem_side_port::system.l2.cpu_side_port        45312                       # Cumulative packet size per connected requestor and responder (bytes)
system.tol2bus.pkt_size_system.cpu.dcache.mem_side_port::system.l2.cpu_side_port      8694400                       # Cumulative packet size per connected requestor and responder (bytes)
system.tol2bus.pkt_size::total                8739712                       # Cumulative packet size per connected requestor and responder (bytes)
system.tol2bus.snoops                               0                       # Total snoops (count)
system.tol2bus.snoopTraffic                         0                       # Total snoop traffic (bytes)
system.tol2bus.snoop_fanout::samples            35822                       # Request fanout histogram
system.tol2bus.snoop_fanout::mean            0.002401                       # Request fanout histogram
system.tol2bus.snoop_fanout::stdev           0.048939                       # Request fanout histogram
system.tol2bus.snoop_fanout::underflows             0      0.00%      0.00% # Request fanout histogram
system.tol2bus.snoop_fanout::0                  35736     99.76%     99.76% # Request fanout histogram
system.tol2bus.snoop_fanout::1                     86      0.24%    100.00% # Request fanout histogram
system.tol2bus.snoop_fanout::2                      0      0.00%    100.00% # Request fanout histogram
system.tol2bus.snoop_fanout::overflows              0      0.00%    100.00% # Request fanout histogram
system.tol2bus.snoop_fanout::min_value              0                       # Request fanout histogram
system.tol2bus.snoop_fanout::max_value              1                       # Request fanout histogram
system.tol2bus.snoop_fanout::total              35822                       # Request fanout histogram
system.tol2bus.power_state.pwrStateResidencyTicks::UNDEFINED 218844628000                       # Cumulative time (in ticks) in various power states
system.tol2bus.reqLayer0.occupancy          401244000                       # Layer occupancy (ticks)
system.tol2bus.reqLayer0.utilization              0.2                       # Layer utilization (%)
system.tol2bus.respLayer0.occupancy           3460000                       # Layer occupancy (ticks)
system.tol2bus.respLayer0.utilization             0.0                       # Layer utilization (%)
system.tol2bus.respLayer1.occupancy         354763998                       # Layer occupancy (ticks)
system.tol2bus.respLayer1.utilization             0.2                       # Layer utilization (%)
system.voltage_domain.voltage                       1                       # Voltage in Volts

---------- End Simulation Statistics   ----------
