
---------- Begin Simulation Statistics ----------
final_tick                               433321776000                       # Number of ticks from beginning of simulation (restored from checkpoints and never reset)
host_inst_rate                                 320667                       # Simulator instruction rate (inst/s)
host_mem_usage                                 669860                       # Number of bytes of host memory used
host_op_rate                                   320678                       # Simulator op (including micro ops) rate (op/s)
host_seconds                                   311.85                       # Real time elapsed on the host
host_tick_rate                             1389519069                       # Simulator tick rate (ticks/s)
sim_freq                                 1000000000000                       # Frequency of simulated ticks
sim_insts                                   100000000                       # Number of instructions simulated
sim_ops                                     100003638                       # Number of ops (including micro ops) simulated
sim_seconds                                  0.433322                       # Number of seconds simulated
sim_ticks                                433321776000                       # Number of ticks simulated
system.cpu.committedInsts                   100000000                       # Number of instructions committed
system.cpu.committedOps                     100003638                       # Number of ops (including micro ops) committed
system.cpu.cpi                               2.166609                       # CPI: cycles per instruction
system.cpu.discardedOps                         21293                       # Number of ops (including micro ops) which were discarded before commit
system.cpu.idleCycles                        99240037                       # Total number of cycles that the object has spent stopped
system.cpu.ipc                               0.461551                       # IPC: instructions per cycle
system.cpu.numCycles                        216660888                       # number of cpu cycles simulated
system.cpu.numFetchSuspends                         0                       # Number of times Execute suspended instruction fetching
system.cpu.numWorkItemsCompleted                    0                       # number of work items this cpu completed
system.cpu.numWorkItemsStarted                      0                       # number of work items this cpu started
system.cpu.op_class_0::No_OpClass                   0      0.00%      0.00% # Class of committed instruction
system.cpu.op_class_0::IntAlu                49995336     49.99%     49.99% # Class of committed instruction
system.cpu.op_class_0::IntMult                     85      0.00%     49.99% # Class of committed instruction
system.cpu.op_class_0::IntDiv                       0      0.00%     49.99% # Class of committed instruction
system.cpu.op_class_0::FloatAdd                     0      0.00%     49.99% # Class of committed instruction
system.cpu.op_class_0::FloatCmp                     0      0.00%     49.99% # Class of committed instruction
system.cpu.op_class_0::FloatCvt                     0      0.00%     49.99% # Class of committed instruction
system.cpu.op_class_0::FloatMult                    0      0.00%     49.99% # Class of committed instruction
system.cpu.op_class_0::FloatMultAcc                 0      0.00%     49.99% # Class of committed instruction
system.cpu.op_class_0::FloatDiv                     0      0.00%     49.99% # Class of committed instruction
system.cpu.op_class_0::FloatMisc                    0      0.00%     49.99% # Class of committed instruction
system.cpu.op_class_0::FloatSqrt                    0      0.00%     49.99% # Class of committed instruction
system.cpu.op_class_0::SimdAdd                      0      0.00%     49.99% # Class of committed instruction
system.cpu.op_class_0::SimdAddAcc                   0      0.00%     49.99% # Class of committed instruction
system.cpu.op_class_0::SimdAlu                      0      0.00%     49.99% # Class of committed instruction
system.cpu.op_class_0::SimdCmp                      0      0.00%     49.99% # Class of committed instruction
system.cpu.op_class_0::SimdCvt                      0      0.00%     49.99% # Class of committed instruction
system.cpu.op_class_0::SimdMisc                     0      0.00%     49.99% # Class of committed instruction
system.cpu.op_class_0::SimdMult                     0      0.00%     49.99% # Class of committed instruction
system.cpu.op_class_0::SimdMultAcc                  0      0.00%     49.99% # Class of committed instruction
system.cpu.op_class_0::SimdShift                    0      0.00%     49.99% # Class of committed instruction
system.cpu.op_class_0::SimdShiftAcc                 0      0.00%     49.99% # Class of committed instruction
system.cpu.op_class_0::SimdDiv                      0      0.00%     49.99% # Class of committed instruction
system.cpu.op_class_0::SimdSqrt                     0      0.00%     49.99% # Class of committed instruction
system.cpu.op_class_0::SimdFloatAdd                 0      0.00%     49.99% # Class of committed instruction
system.cpu.op_class_0::SimdFloatAlu                 0      0.00%     49.99% # Class of committed instruction
system.cpu.op_class_0::SimdFloatCmp                 2      0.00%     49.99% # Class of committed instruction
system.cpu.op_class_0::SimdFloatCvt                 0      0.00%     49.99% # Class of committed instruction
system.cpu.op_class_0::SimdFloatDiv                 0      0.00%     49.99% # Class of committed instruction
system.cpu.op_class_0::SimdFloatMisc               22      0.00%     49.99% # Class of committed instruction
system.cpu.op_class_0::SimdFloatMult                0      0.00%     49.99% # Class of committed instruction
system.cpu.op_class_0::SimdFloatMultAcc             0      0.00%     49.99% # Class of committed instruction
system.cpu.op_class_0::SimdFloatSqrt                0      0.00%     49.99% # Class of committed instruction
system.cpu.op_class_0::SimdReduceAdd                0      0.00%     49.99% # Class of committed instruction
system.cpu.op_class_0::SimdReduceAlu                0      0.00%     49.99% # Class of committed instruction
system.cpu.op_class_0::SimdReduceCmp                0      0.00%     49.99% # Class of committed instruction
system.cpu.op_class_0::SimdFloatReduceAdd            0      0.00%     49.99% # Class of committed instruction
system.cpu.op_class_0::SimdFloatReduceCmp            0      0.00%     49.99% # Class of committed instruction
system.cpu.op_class_0::SimdAes                      0      0.00%     49.99% # Class of committed instruction
system.cpu.op_class_0::SimdAesMix                   0      0.00%     49.99% # Class of committed instruction
system.cpu.op_class_0::SimdSha1Hash                 0      0.00%     49.99% # Class of committed instruction
system.cpu.op_class_0::SimdSha1Hash2                0      0.00%     49.99% # Class of committed instruction
system.cpu.op_class_0::SimdSha256Hash               0      0.00%     49.99% # Class of committed instruction
system.cpu.op_class_0::SimdSha256Hash2              0      0.00%     49.99% # Class of committed instruction
system.cpu.op_class_0::SimdShaSigma2                0      0.00%     49.99% # Class of committed instruction
system.cpu.op_class_0::SimdShaSigma3                0      0.00%     49.99% # Class of committed instruction
system.cpu.op_class_0::SimdPredAlu                  0      0.00%     49.99% # Class of committed instruction
system.cpu.op_class_0::MemRead               36892300     36.89%     86.88% # Class of committed instruction
system.cpu.op_class_0::MemWrite              13115893     13.12%    100.00% # Class of committed instruction
system.cpu.op_class_0::FloatMemRead                 0      0.00%    100.00% # Class of committed instruction
system.cpu.op_class_0::FloatMemWrite                0      0.00%    100.00% # Class of committed instruction
system.cpu.op_class_0::IprAccess                    0      0.00%    100.00% # Class of committed instruction
system.cpu.op_class_0::InstPrefetch                 0      0.00%    100.00% # Class of committed instruction
system.cpu.op_class_0::total                100003638                       # Class of committed instruction
system.cpu.tickCycles                       117420851                       # Number of cycles that the object actually ticked
system.cpu.workload.numSyscalls                    18                       # Number of system calls
system.membus.snoop_filter.hit_multi_requests            0                       # Number of requests hitting in the snoop filter with multiple (>1) holders of the requested data.
system.membus.snoop_filter.hit_multi_snoops            0                       # Number of snoops hitting in the snoop filter with multiple (>1) holders of the requested data.
system.membus.snoop_filter.hit_single_requests      1455045                       # Number of requests hitting in the snoop filter with a single holder of the requested data.
system.membus.snoop_filter.hit_single_snoops            0                       # Number of snoops hitting in the snoop filter with a single holder of the requested data.
system.membus.snoop_filter.tot_requests       2943152                       # Total number of requests made to the snoop filter.
system.membus.snoop_filter.tot_snoops               0                       # Total number of snoops made to the snoop filter.
system.tol2bus.snoop_filter.hit_multi_requests        11656                       # Number of requests hitting in the snoop filter with multiple (>1) holders of the requested data.
system.tol2bus.snoop_filter.hit_multi_snoops            0                       # Number of snoops hitting in the snoop filter with multiple (>1) holders of the requested data.
system.tol2bus.snoop_filter.hit_single_requests      1528253                       # Number of requests hitting in the snoop filter with a single holder of the requested data.
system.tol2bus.snoop_filter.hit_single_snoops          294                       # Number of snoops hitting in the snoop filter with a single holder of the requested data.
system.tol2bus.snoop_filter.tot_requests      3057312                       # Total number of requests made to the snoop filter.
system.tol2bus.snoop_filter.tot_snoops            294                       # Total number of snoops made to the snoop filter.
system.clk_domain.clock                          1000                       # Clock period in ticks
system.cpu.branchPred.lookups                  606558                       # Number of BP lookups
system.cpu.branchPred.condPredicted            604428                       # Number of conditional branches predicted
system.cpu.branchPred.condIncorrect               844                       # Number of conditional branches incorrect
system.cpu.branchPred.BTBLookups               602446                       # Number of BTB lookups
system.cpu.branchPred.BTBHits                  601369                       # Number of BTB hits
system.cpu.branchPred.BTBHitPct             99.821229                       # BTB Hit Percentage
system.cpu.branchPred.RASUsed                     585                       # Number of times the RAS was used to get a target.
system.cpu.branchPred.RASIncorrect                  1                       # Number of incorrect RAS predictions.
system.cpu.branchPred.indirectLookups             379                       # Number of indirect predictor lookups.
system.cpu.branchPred.indirectHits                173                       # Number of indirect target hits.
system.cpu.branchPred.indirectMisses              206                       # Number of indirect misses.
system.cpu.branchPred.indirectMispredicted          103                       # Number of mispredicted indirect branches.
system.cpu.dcache.demand_hits::.cpu.data     45763193                       # number of demand (read+write) hits
system.cpu.dcache.demand_hits::total         45763193                       # number of demand (read+write) hits
system.cpu.dcache.overall_hits::.cpu.data     45763228                       # number of overall hits
system.cpu.dcache.overall_hits::total        45763228                       # number of overall hits
system.cpu.dcache.demand_misses::.cpu.data      3032067                       # number of demand (read+write) misses
system.cpu.dcache.demand_misses::total        3032067                       # number of demand (read+write) misses
system.cpu.dcache.overall_misses::.cpu.data      3032084                       # number of overall misses
system.cpu.dcache.overall_misses::total       3032084                       # number of overall misses
system.cpu.dcache.demand_miss_latency::.cpu.data 416162248000                       # number of demand (read+write) miss cycles
system.cpu.dcache.demand_miss_latency::total 416162248000                       # number of demand (read+write) miss cycles
system.cpu.dcache.overall_miss_latency::.cpu.data 416162248000                       # number of overall miss cycles
system.cpu.dcache.overall_miss_latency::total 416162248000                       # number of overall miss cycles
system.cpu.dcache.demand_accesses::.cpu.data     48795260                       # number of demand (read+write) accesses
system.cpu.dcache.demand_accesses::total     48795260                       # number of demand (read+write) accesses
system.cpu.dcache.overall_accesses::.cpu.data     48795312                       # number of overall (read+write) accesses
system.cpu.dcache.overall_accesses::total     48795312                       # number of overall (read+write) accesses
system.cpu.dcache.demand_miss_rate::.cpu.data     0.062139                       # miss rate for demand accesses
system.cpu.dcache.demand_miss_rate::total     0.062139                       # miss rate for demand accesses
system.cpu.dcache.overall_miss_rate::.cpu.data     0.062139                       # miss rate for overall accesses
system.cpu.dcache.overall_miss_rate::total     0.062139                       # miss rate for overall accesses
system.cpu.dcache.demand_avg_miss_latency::.cpu.data 137253.645121                       # average overall miss latency
system.cpu.dcache.demand_avg_miss_latency::total 137253.645121                       # average overall miss latency
system.cpu.dcache.overall_avg_miss_latency::.cpu.data 137252.875580                       # average overall miss latency
system.cpu.dcache.overall_avg_miss_latency::total 137252.875580                       # average overall miss latency
system.cpu.dcache.blocked_cycles::no_mshrs            0                       # number of cycles access was blocked
system.cpu.dcache.blocked_cycles::no_targets            0                       # number of cycles access was blocked
system.cpu.dcache.blocked::no_mshrs                 0                       # number of cycles access was blocked
system.cpu.dcache.blocked::no_targets               0                       # number of cycles access was blocked
system.cpu.dcache.avg_blocked_cycles::no_mshrs          nan                       # average number of cycles each access was blocked
system.cpu.dcache.avg_blocked_cycles::no_targets          nan                       # average number of cycles each access was blocked
system.cpu.dcache.writebacks::.writebacks      1516074                       # number of writebacks
system.cpu.dcache.writebacks::total           1516074                       # number of writebacks
system.cpu.dcache.demand_mshr_hits::.cpu.data      1503757                       # number of demand (read+write) MSHR hits
system.cpu.dcache.demand_mshr_hits::total      1503757                       # number of demand (read+write) MSHR hits
system.cpu.dcache.overall_mshr_hits::.cpu.data      1503757                       # number of overall MSHR hits
system.cpu.dcache.overall_mshr_hits::total      1503757                       # number of overall MSHR hits
system.cpu.dcache.demand_mshr_misses::.cpu.data      1528310                       # number of demand (read+write) MSHR misses
system.cpu.dcache.demand_mshr_misses::total      1528310                       # number of demand (read+write) MSHR misses
system.cpu.dcache.overall_mshr_misses::.cpu.data      1528325                       # number of overall MSHR misses
system.cpu.dcache.overall_mshr_misses::total      1528325                       # number of overall MSHR misses
system.cpu.dcache.demand_mshr_miss_latency::.cpu.data 219061362000                       # number of demand (read+write) MSHR miss cycles
system.cpu.dcache.demand_mshr_miss_latency::total 219061362000                       # number of demand (read+write) MSHR miss cycles
system.cpu.dcache.overall_mshr_miss_latency::.cpu.data 219063544000                       # number of overall MSHR miss cycles
system.cpu.dcache.overall_mshr_miss_latency::total 219063544000                       # number of overall MSHR miss cycles
system.cpu.dcache.demand_mshr_miss_rate::.cpu.data     0.031321                       # mshr miss rate for demand accesses
system.cpu.dcache.demand_mshr_miss_rate::total     0.031321                       # mshr miss rate for demand accesses
system.cpu.dcache.overall_mshr_miss_rate::.cpu.data     0.031321                       # mshr miss rate for overall accesses
system.cpu.dcache.overall_mshr_miss_rate::total     0.031321                       # mshr miss rate for overall accesses
system.cpu.dcache.demand_avg_mshr_miss_latency::.cpu.data 143335.685823                       # average overall mshr miss latency
system.cpu.dcache.demand_avg_mshr_miss_latency::total 143335.685823                       # average overall mshr miss latency
system.cpu.dcache.overall_avg_mshr_miss_latency::.cpu.data 143335.706738                       # average overall mshr miss latency
system.cpu.dcache.overall_avg_mshr_miss_latency::total 143335.706738                       # average overall mshr miss latency
system.cpu.dcache.replacements                1527813                       # number of replacements
system.cpu.dcache.ReadReq_hits::.cpu.data     35679340                       # number of ReadReq hits
system.cpu.dcache.ReadReq_hits::total        35679340                       # number of ReadReq hits
system.cpu.dcache.ReadReq_misses::.cpu.data        23374                       # number of ReadReq misses
system.cpu.dcache.ReadReq_misses::total         23374                       # number of ReadReq misses
system.cpu.dcache.ReadReq_miss_latency::.cpu.data   2132458000                       # number of ReadReq miss cycles
system.cpu.dcache.ReadReq_miss_latency::total   2132458000                       # number of ReadReq miss cycles
system.cpu.dcache.ReadReq_accesses::.cpu.data     35702714                       # number of ReadReq accesses(hits+misses)
system.cpu.dcache.ReadReq_accesses::total     35702714                       # number of ReadReq accesses(hits+misses)
system.cpu.dcache.ReadReq_miss_rate::.cpu.data     0.000655                       # miss rate for ReadReq accesses
system.cpu.dcache.ReadReq_miss_rate::total     0.000655                       # miss rate for ReadReq accesses
system.cpu.dcache.ReadReq_avg_miss_latency::.cpu.data 91232.052708                       # average ReadReq miss latency
system.cpu.dcache.ReadReq_avg_miss_latency::total 91232.052708                       # average ReadReq miss latency
system.cpu.dcache.ReadReq_mshr_hits::.cpu.data            4                       # number of ReadReq MSHR hits
system.cpu.dcache.ReadReq_mshr_hits::total            4                       # number of ReadReq MSHR hits
system.cpu.dcache.ReadReq_mshr_misses::.cpu.data        23370                       # number of ReadReq MSHR misses
system.cpu.dcache.ReadReq_mshr_misses::total        23370                       # number of ReadReq MSHR misses
system.cpu.dcache.ReadReq_mshr_miss_latency::.cpu.data   2038368000                       # number of ReadReq MSHR miss cycles
system.cpu.dcache.ReadReq_mshr_miss_latency::total   2038368000                       # number of ReadReq MSHR miss cycles
system.cpu.dcache.ReadReq_mshr_miss_rate::.cpu.data     0.000655                       # mshr miss rate for ReadReq accesses
system.cpu.dcache.ReadReq_mshr_miss_rate::total     0.000655                       # mshr miss rate for ReadReq accesses
system.cpu.dcache.ReadReq_avg_mshr_miss_latency::.cpu.data 87221.566110                       # average ReadReq mshr miss latency
system.cpu.dcache.ReadReq_avg_mshr_miss_latency::total 87221.566110                       # average ReadReq mshr miss latency
system.cpu.dcache.WriteReq_hits::.cpu.data     10083853                       # number of WriteReq hits
system.cpu.dcache.WriteReq_hits::total       10083853                       # number of WriteReq hits
system.cpu.dcache.WriteReq_misses::.cpu.data      3008693                       # number of WriteReq misses
system.cpu.dcache.WriteReq_misses::total      3008693                       # number of WriteReq misses
system.cpu.dcache.WriteReq_miss_latency::.cpu.data 414029790000                       # number of WriteReq miss cycles
system.cpu.dcache.WriteReq_miss_latency::total 414029790000                       # number of WriteReq miss cycles
system.cpu.dcache.WriteReq_accesses::.cpu.data     13092546                       # number of WriteReq accesses(hits+misses)
system.cpu.dcache.WriteReq_accesses::total     13092546                       # number of WriteReq accesses(hits+misses)
system.cpu.dcache.WriteReq_miss_rate::.cpu.data     0.229802                       # miss rate for WriteReq accesses
system.cpu.dcache.WriteReq_miss_rate::total     0.229802                       # miss rate for WriteReq accesses
system.cpu.dcache.WriteReq_avg_miss_latency::.cpu.data 137611.178675                       # average WriteReq miss latency
system.cpu.dcache.WriteReq_avg_miss_latency::total 137611.178675                       # average WriteReq miss latency
system.cpu.dcache.WriteReq_mshr_hits::.cpu.data      1503753                       # number of WriteReq MSHR hits
system.cpu.dcache.WriteReq_mshr_hits::total      1503753                       # number of WriteReq MSHR hits
system.cpu.dcache.WriteReq_mshr_misses::.cpu.data      1504940                       # number of WriteReq MSHR misses
system.cpu.dcache.WriteReq_mshr_misses::total      1504940                       # number of WriteReq MSHR misses
system.cpu.dcache.WriteReq_mshr_miss_latency::.cpu.data 217022994000                       # number of WriteReq MSHR miss cycles
system.cpu.dcache.WriteReq_mshr_miss_latency::total 217022994000                       # number of WriteReq MSHR miss cycles
system.cpu.dcache.WriteReq_mshr_miss_rate::.cpu.data     0.114946                       # mshr miss rate for WriteReq accesses
system.cpu.dcache.WriteReq_mshr_miss_rate::total     0.114946                       # mshr miss rate for WriteReq accesses
system.cpu.dcache.WriteReq_avg_mshr_miss_latency::.cpu.data 144207.074036                       # average WriteReq mshr miss latency
system.cpu.dcache.WriteReq_avg_mshr_miss_latency::total 144207.074036                       # average WriteReq mshr miss latency
system.cpu.dcache.SoftPFReq_hits::.cpu.data           35                       # number of SoftPFReq hits
system.cpu.dcache.SoftPFReq_hits::total            35                       # number of SoftPFReq hits
system.cpu.dcache.SoftPFReq_misses::.cpu.data           17                       # number of SoftPFReq misses
system.cpu.dcache.SoftPFReq_misses::total           17                       # number of SoftPFReq misses
system.cpu.dcache.SoftPFReq_accesses::.cpu.data           52                       # number of SoftPFReq accesses(hits+misses)
system.cpu.dcache.SoftPFReq_accesses::total           52                       # number of SoftPFReq accesses(hits+misses)
system.cpu.dcache.SoftPFReq_miss_rate::.cpu.data     0.326923                       # miss rate for SoftPFReq accesses
system.cpu.dcache.SoftPFReq_miss_rate::total     0.326923                       # miss rate for SoftPFReq accesses
system.cpu.dcache.SoftPFReq_mshr_misses::.cpu.data           15                       # number of SoftPFReq MSHR misses
system.cpu.dcache.SoftPFReq_mshr_misses::total           15                       # number of SoftPFReq MSHR misses
system.cpu.dcache.SoftPFReq_mshr_miss_latency::.cpu.data      2182000                       # number of SoftPFReq MSHR miss cycles
system.cpu.dcache.SoftPFReq_mshr_miss_latency::total      2182000                       # number of SoftPFReq MSHR miss cycles
system.cpu.dcache.SoftPFReq_mshr_miss_rate::.cpu.data     0.288462                       # mshr miss rate for SoftPFReq accesses
system.cpu.dcache.SoftPFReq_mshr_miss_rate::total     0.288462                       # mshr miss rate for SoftPFReq accesses
system.cpu.dcache.SoftPFReq_avg_mshr_miss_latency::.cpu.data 145466.666667                       # average SoftPFReq mshr miss latency
system.cpu.dcache.SoftPFReq_avg_mshr_miss_latency::total 145466.666667                       # average SoftPFReq mshr miss latency
system.cpu.dcache.LoadLockedReq_hits::.cpu.data           13                       # number of LoadLockedReq hits
system.cpu.dcache.LoadLockedReq_hits::total           13                       # number of LoadLockedReq hits
system.cpu.dcache.LoadLockedReq_misses::.cpu.data            1                       # number of LoadLockedReq misses
system.cpu.dcache.LoadLockedReq_misses::total            1                       # number of LoadLockedReq misses
system.cpu.dcache.LoadLockedReq_miss_latency::.cpu.data        52000                       # number of LoadLockedReq miss cycles
system.cpu.dcache.LoadLockedReq_miss_latency::total        52000                       # number of LoadLockedReq miss cycles
system.cpu.dcache.LoadLockedReq_accesses::.cpu.data           14                       # number of LoadLockedReq accesses(hits+misses)
system.cpu.dcache.LoadLockedReq_accesses::total           14                       # number of LoadLockedReq accesses(hits+misses)
system.cpu.dcache.LoadLockedReq_miss_rate::.cpu.data     0.071429                       # miss rate for LoadLockedReq accesses
system.cpu.dcache.LoadLockedReq_miss_rate::total     0.071429                       # miss rate for LoadLockedReq accesses
system.cpu.dcache.LoadLockedReq_avg_miss_latency::.cpu.data        52000                       # average LoadLockedReq miss latency
system.cpu.dcache.LoadLockedReq_avg_miss_latency::total        52000                       # average LoadLockedReq miss latency
system.cpu.dcache.LoadLockedReq_mshr_misses::.cpu.data            1                       # number of LoadLockedReq MSHR misses
system.cpu.dcache.LoadLockedReq_mshr_misses::total            1                       # number of LoadLockedReq MSHR misses
system.cpu.dcache.LoadLockedReq_mshr_miss_latency::.cpu.data        48000                       # number of LoadLockedReq MSHR miss cycles
system.cpu.dcache.LoadLockedReq_mshr_miss_latency::total        48000                       # number of LoadLockedReq MSHR miss cycles
system.cpu.dcache.LoadLockedReq_mshr_miss_rate::.cpu.data     0.071429                       # mshr miss rate for LoadLockedReq accesses
system.cpu.dcache.LoadLockedReq_mshr_miss_rate::total     0.071429                       # mshr miss rate for LoadLockedReq accesses
system.cpu.dcache.LoadLockedReq_avg_mshr_miss_latency::.cpu.data        48000                       # average LoadLockedReq mshr miss latency
system.cpu.dcache.LoadLockedReq_avg_mshr_miss_latency::total        48000                       # average LoadLockedReq mshr miss latency
system.cpu.dcache.StoreCondReq_hits::.cpu.data           14                       # number of StoreCondReq hits
system.cpu.dcache.StoreCondReq_hits::total           14                       # number of StoreCondReq hits
system.cpu.dcache.StoreCondReq_accesses::.cpu.data           14                       # number of StoreCondReq accesses(hits+misses)
system.cpu.dcache.StoreCondReq_accesses::total           14                       # number of StoreCondReq accesses(hits+misses)
system.cpu.dcache.power_state.pwrStateResidencyTicks::UNDEFINED 433321776000                       # Cumulative time (in ticks) in various power states
system.cpu.dcache.tags.tagsinuse           511.795932                       # Cycle average of tags in use
system.cpu.dcache.tags.total_refs            47291580                       # Total number of references to valid blocks.
system.cpu.dcache.tags.sampled_refs           1528325                       # Sample count of references to valid blocks.
system.cpu.dcache.tags.avg_refs             30.943405                       # Average number of references to valid blocks.
system.cpu.dcache.tags.warmup_cycle            322000                       # Cycle when the warmup percentage was hit.
system.cpu.dcache.tags.occ_blocks::.cpu.data   511.795932                       # Average occupied blocks per requestor
system.cpu.dcache.tags.occ_percent::.cpu.data     0.999601                       # Average percentage of cache occupancy
system.cpu.dcache.tags.occ_percent::total     0.999601                       # Average percentage of cache occupancy
system.cpu.dcache.tags.occ_task_id_blocks::1024          512                       # Occupied blocks per task id
system.cpu.dcache.tags.age_task_id_blocks_1024::0           34                       # Occupied blocks per task id
system.cpu.dcache.tags.age_task_id_blocks_1024::1          311                       # Occupied blocks per task id
system.cpu.dcache.tags.age_task_id_blocks_1024::2          167                       # Occupied blocks per task id
system.cpu.dcache.tags.occ_task_id_percent::1024            1                       # Percentage of cache occupancy per task id
system.cpu.dcache.tags.tag_accesses          50323665                       # Number of tag accesses
system.cpu.dcache.tags.data_accesses         50323665                       # Number of data accesses
system.cpu.dcache.tags.power_state.pwrStateResidencyTicks::UNDEFINED 433321776000                       # Cumulative time (in ticks) in various power states
system.cpu.dtb.instHits                             0                       # ITB inst hits
system.cpu.dtb.instMisses                           0                       # ITB inst misses
system.cpu.dtb.readHits                             0                       # DTB read hits
system.cpu.dtb.readMisses                           0                       # DTB read misses
system.cpu.dtb.writeHits                            0                       # DTB write hits
system.cpu.dtb.writeMisses                          0                       # DTB write misses
system.cpu.dtb.inserts                              0                       # Number of times an entry is inserted into the TLB
system.cpu.dtb.flushTlb                             0                       # Number of times complete TLB was flushed
system.cpu.dtb.flushTlbMva                          0                       # Number of times TLB was flushed by MVA
system.cpu.dtb.flushTlbMvaAsid                      0                       # Number of times TLB was flushed by MVA & ASID
system.cpu.dtb.flushTlbAsid                         0                       # Number of times TLB was flushed by ASID
system.cpu.dtb.flushedEntries                       0                       # Number of entries that have been flushed from TLB
system.cpu.dtb.alignFaults                          0                       # Number of TLB faults due to alignment restrictions
system.cpu.dtb.prefetchFaults                       0                       # Number of TLB faults due to prefetch
system.cpu.dtb.domainFaults                         0                       # Number of TLB faults due to domain restrictions
system.cpu.dtb.permsFaults                          0                       # Number of TLB faults due to permissions restrictions
system.cpu.dtb.readAccesses                         0                       # DTB read accesses
system.cpu.dtb.writeAccesses                        0                       # DTB write accesses
system.cpu.dtb.instAccesses                         0                       # ITB inst accesses
system.cpu.dtb.hits                                 0                       # Total TLB (inst and data) hits
system.cpu.dtb.misses                               0                       # Total TLB (inst and data) misses
system.cpu.dtb.accesses                             0                       # Total TLB (inst and data) accesses
system.cpu.dtb.stage2_mmu.stage2_tlb.instHits            0                       # ITB inst hits
system.cpu.dtb.stage2_mmu.stage2_tlb.instMisses            0                       # ITB inst misses
system.cpu.dtb.stage2_mmu.stage2_tlb.readHits            0                       # DTB read hits
system.cpu.dtb.stage2_mmu.stage2_tlb.readMisses            0                       # DTB read misses
system.cpu.dtb.stage2_mmu.stage2_tlb.writeHits            0                       # DTB write hits
system.cpu.dtb.stage2_mmu.stage2_tlb.writeMisses            0                       # DTB write misses
system.cpu.dtb.stage2_mmu.stage2_tlb.inserts            0                       # Number of times an entry is inserted into the TLB
system.cpu.dtb.stage2_mmu.stage2_tlb.flushTlb            0                       # Number of times complete TLB was flushed
system.cpu.dtb.stage2_mmu.stage2_tlb.flushTlbMva            0                       # Number of times TLB was flushed by MVA
system.cpu.dtb.stage2_mmu.stage2_tlb.flushTlbMvaAsid            0                       # Number of times TLB was flushed by MVA & ASID
system.cpu.dtb.stage2_mmu.stage2_tlb.flushTlbAsid            0                       # Number of times TLB was flushed by ASID
system.cpu.dtb.stage2_mmu.stage2_tlb.flushedEntries            0                       # Number of entries that have been flushed from TLB
system.cpu.dtb.stage2_mmu.stage2_tlb.alignFaults            0                       # Number of TLB faults due to alignment restrictions
system.cpu.dtb.stage2_mmu.stage2_tlb.prefetchFaults            0                       # Number of TLB faults due to prefetch
system.cpu.dtb.stage2_mmu.stage2_tlb.domainFaults            0                       # Number of TLB faults due to domain restrictions
system.cpu.dtb.stage2_mmu.stage2_tlb.permsFaults            0                       # Number of TLB faults due to permissions restrictions
system.cpu.dtb.stage2_mmu.stage2_tlb.readAccesses            0                       # DTB read accesses
system.cpu.dtb.stage2_mmu.stage2_tlb.writeAccesses            0                       # DTB write accesses
system.cpu.dtb.stage2_mmu.stage2_tlb.instAccesses            0                       # ITB inst accesses
system.cpu.dtb.stage2_mmu.stage2_tlb.hits            0                       # Total TLB (inst and data) hits
system.cpu.dtb.stage2_mmu.stage2_tlb.misses            0                       # Total TLB (inst and data) misses
system.cpu.dtb.stage2_mmu.stage2_tlb.accesses            0                       # Total TLB (inst and data) accesses
system.cpu.dtb.stage2_mmu.stage2_tlb.walker.walks            0                       # Table walker walks requested
system.cpu.dtb.stage2_mmu.stage2_tlb.walker.requestOrigin_Requested::Data            0                       # Table walker requests started/completed, data/inst
system.cpu.dtb.stage2_mmu.stage2_tlb.walker.requestOrigin_Requested::Inst            0                       # Table walker requests started/completed, data/inst
system.cpu.dtb.stage2_mmu.stage2_tlb.walker.requestOrigin_Requested::total            0                       # Table walker requests started/completed, data/inst
system.cpu.dtb.stage2_mmu.stage2_tlb.walker.requestOrigin_Completed::Data            0                       # Table walker requests started/completed, data/inst
system.cpu.dtb.stage2_mmu.stage2_tlb.walker.requestOrigin_Completed::Inst            0                       # Table walker requests started/completed, data/inst
system.cpu.dtb.stage2_mmu.stage2_tlb.walker.requestOrigin_Completed::total            0                       # Table walker requests started/completed, data/inst
system.cpu.dtb.stage2_mmu.stage2_tlb.walker.requestOrigin::total            0                       # Table walker requests started/completed, data/inst
system.cpu.dtb.stage2_mmu.stage2_tlb.walker.power_state.pwrStateResidencyTicks::UNDEFINED 433321776000                       # Cumulative time (in ticks) in various power states
system.cpu.dtb.walker.walks                         0                       # Table walker walks requested
system.cpu.dtb.walker.requestOrigin_Requested::Data            0                       # Table walker requests started/completed, data/inst
system.cpu.dtb.walker.requestOrigin_Requested::Inst            0                       # Table walker requests started/completed, data/inst
system.cpu.dtb.walker.requestOrigin_Requested::total            0                       # Table walker requests started/completed, data/inst
system.cpu.dtb.walker.requestOrigin_Completed::Data            0                       # Table walker requests started/completed, data/inst
system.cpu.dtb.walker.requestOrigin_Completed::Inst            0                       # Table walker requests started/completed, data/inst
system.cpu.dtb.walker.requestOrigin_Completed::total            0                       # Table walker requests started/completed, data/inst
system.cpu.dtb.walker.requestOrigin::total            0                       # Table walker requests started/completed, data/inst
system.cpu.dtb.walker.power_state.pwrStateResidencyTicks::UNDEFINED 433321776000                       # Cumulative time (in ticks) in various power states
system.cpu.fetch2.intInstructions            49669869                       # Number of integer instructions successfully decoded
system.cpu.fetch2.fpInstructions                    0                       # Number of floating point instructions successfully decoded
system.cpu.fetch2.vecInstructions                   0                       # Number of SIMD instructions successfully decoded
system.cpu.fetch2.loadInstructions           37092379                       # Number of memory load instructions successfully decoded
system.cpu.fetch2.storeInstructions          13161180                       # Number of memory store instructions successfully decoded
system.cpu.fetch2.amoInstructions                   0                       # Number of memory atomic instructions successfully decoded
system.cpu.icache.demand_hits::.cpu.inst      6045529                       # number of demand (read+write) hits
system.cpu.icache.demand_hits::total          6045529                       # number of demand (read+write) hits
system.cpu.icache.overall_hits::.cpu.inst      6045529                       # number of overall hits
system.cpu.icache.overall_hits::total         6045529                       # number of overall hits
system.cpu.icache.demand_misses::.cpu.inst          734                       # number of demand (read+write) misses
system.cpu.icache.demand_misses::total            734                       # number of demand (read+write) misses
system.cpu.icache.overall_misses::.cpu.inst          734                       # number of overall misses
system.cpu.icache.overall_misses::total           734                       # number of overall misses
system.cpu.icache.demand_miss_latency::.cpu.inst     86140000                       # number of demand (read+write) miss cycles
system.cpu.icache.demand_miss_latency::total     86140000                       # number of demand (read+write) miss cycles
system.cpu.icache.overall_miss_latency::.cpu.inst     86140000                       # number of overall miss cycles
system.cpu.icache.overall_miss_latency::total     86140000                       # number of overall miss cycles
system.cpu.icache.demand_accesses::.cpu.inst      6046263                       # number of demand (read+write) accesses
system.cpu.icache.demand_accesses::total      6046263                       # number of demand (read+write) accesses
system.cpu.icache.overall_accesses::.cpu.inst      6046263                       # number of overall (read+write) accesses
system.cpu.icache.overall_accesses::total      6046263                       # number of overall (read+write) accesses
system.cpu.icache.demand_miss_rate::.cpu.inst     0.000121                       # miss rate for demand accesses
system.cpu.icache.demand_miss_rate::total     0.000121                       # miss rate for demand accesses
system.cpu.icache.overall_miss_rate::.cpu.inst     0.000121                       # miss rate for overall accesses
system.cpu.icache.overall_miss_rate::total     0.000121                       # miss rate for overall accesses
system.cpu.icache.demand_avg_miss_latency::.cpu.inst 117356.948229                       # average overall miss latency
system.cpu.icache.demand_avg_miss_latency::total 117356.948229                       # average overall miss latency
system.cpu.icache.overall_avg_miss_latency::.cpu.inst 117356.948229                       # average overall miss latency
system.cpu.icache.overall_avg_miss_latency::total 117356.948229                       # average overall miss latency
system.cpu.icache.blocked_cycles::no_mshrs            0                       # number of cycles access was blocked
system.cpu.icache.blocked_cycles::no_targets            0                       # number of cycles access was blocked
system.cpu.icache.blocked::no_mshrs                 0                       # number of cycles access was blocked
system.cpu.icache.blocked::no_targets               0                       # number of cycles access was blocked
system.cpu.icache.avg_blocked_cycles::no_mshrs          nan                       # average number of cycles each access was blocked
system.cpu.icache.avg_blocked_cycles::no_targets          nan                       # average number of cycles each access was blocked
system.cpu.icache.writebacks::.writebacks          439                       # number of writebacks
system.cpu.icache.writebacks::total               439                       # number of writebacks
system.cpu.icache.demand_mshr_misses::.cpu.inst          734                       # number of demand (read+write) MSHR misses
system.cpu.icache.demand_mshr_misses::total          734                       # number of demand (read+write) MSHR misses
system.cpu.icache.overall_mshr_misses::.cpu.inst          734                       # number of overall MSHR misses
system.cpu.icache.overall_mshr_misses::total          734                       # number of overall MSHR misses
system.cpu.icache.demand_mshr_miss_latency::.cpu.inst     83204000                       # number of demand (read+write) MSHR miss cycles
system.cpu.icache.demand_mshr_miss_latency::total     83204000                       # number of demand (read+write) MSHR miss cycles
system.cpu.icache.overall_mshr_miss_latency::.cpu.inst     83204000                       # number of overall MSHR miss cycles
system.cpu.icache.overall_mshr_miss_latency::total     83204000                       # number of overall MSHR miss cycles
system.cpu.icache.demand_mshr_miss_rate::.cpu.inst     0.000121                       # mshr miss rate for demand accesses
system.cpu.icache.demand_mshr_miss_rate::total     0.000121                       # mshr miss rate for demand accesses
system.cpu.icache.overall_mshr_miss_rate::.cpu.inst     0.000121                       # mshr miss rate for overall accesses
system.cpu.icache.overall_mshr_miss_rate::total     0.000121                       # mshr miss rate for overall accesses
system.cpu.icache.demand_avg_mshr_miss_latency::.cpu.inst 113356.948229                       # average overall mshr miss latency
system.cpu.icache.demand_avg_mshr_miss_latency::total 113356.948229                       # average overall mshr miss latency
system.cpu.icache.overall_avg_mshr_miss_latency::.cpu.inst 113356.948229                       # average overall mshr miss latency
system.cpu.icache.overall_avg_mshr_miss_latency::total 113356.948229                       # average overall mshr miss latency
system.cpu.icache.replacements                    439                       # number of replacements
system.cpu.icache.ReadReq_hits::.cpu.inst      6045529                       # number of ReadReq hits
system.cpu.icache.ReadReq_hits::total         6045529                       # number of ReadReq hits
system.cpu.icache.ReadReq_misses::.cpu.inst          734                       # number of ReadReq misses
system.cpu.icache.ReadReq_misses::total           734                       # number of ReadReq misses
system.cpu.icache.ReadReq_miss_latency::.cpu.inst     86140000                       # number of ReadReq miss cycles
system.cpu.icache.ReadReq_miss_latency::total     86140000                       # number of ReadReq miss cycles
system.cpu.icache.ReadReq_accesses::.cpu.inst      6046263                       # number of ReadReq accesses(hits+misses)
system.cpu.icache.ReadReq_accesses::total      6046263                       # number of ReadReq accesses(hits+misses)
system.cpu.icache.ReadReq_miss_rate::.cpu.inst     0.000121                       # miss rate for ReadReq accesses
system.cpu.icache.ReadReq_miss_rate::total     0.000121                       # miss rate for ReadReq accesses
system.cpu.icache.ReadReq_avg_miss_latency::.cpu.inst 117356.948229                       # average ReadReq miss latency
system.cpu.icache.ReadReq_avg_miss_latency::total 117356.948229                       # average ReadReq miss latency
system.cpu.icache.ReadReq_mshr_misses::.cpu.inst          734                       # number of ReadReq MSHR misses
system.cpu.icache.ReadReq_mshr_misses::total          734                       # number of ReadReq MSHR misses
system.cpu.icache.ReadReq_mshr_miss_latency::.cpu.inst     83204000                       # number of ReadReq MSHR miss cycles
system.cpu.icache.ReadReq_mshr_miss_latency::total     83204000                       # number of ReadReq MSHR miss cycles
system.cpu.icache.ReadReq_mshr_miss_rate::.cpu.inst     0.000121                       # mshr miss rate for ReadReq accesses
system.cpu.icache.ReadReq_mshr_miss_rate::total     0.000121                       # mshr miss rate for ReadReq accesses
system.cpu.icache.ReadReq_avg_mshr_miss_latency::.cpu.inst 113356.948229                       # average ReadReq mshr miss latency
system.cpu.icache.ReadReq_avg_mshr_miss_latency::total 113356.948229                       # average ReadReq mshr miss latency
system.cpu.icache.power_state.pwrStateResidencyTicks::UNDEFINED 433321776000                       # Cumulative time (in ticks) in various power states
system.cpu.icache.tags.tagsinuse           294.964861                       # Cycle average of tags in use
system.cpu.icache.tags.total_refs             6046263                       # Total number of references to valid blocks.
system.cpu.icache.tags.sampled_refs               734                       # Sample count of references to valid blocks.
system.cpu.icache.tags.avg_refs           8237.415531                       # Average number of references to valid blocks.
system.cpu.icache.tags.warmup_cycle            154000                       # Cycle when the warmup percentage was hit.
system.cpu.icache.tags.occ_blocks::.cpu.inst   294.964861                       # Average occupied blocks per requestor
system.cpu.icache.tags.occ_percent::.cpu.inst     0.576103                       # Average percentage of cache occupancy
system.cpu.icache.tags.occ_percent::total     0.576103                       # Average percentage of cache occupancy
system.cpu.icache.tags.occ_task_id_blocks::1024          295                       # Occupied blocks per task id
system.cpu.icache.tags.age_task_id_blocks_1024::4          295                       # Occupied blocks per task id
system.cpu.icache.tags.occ_task_id_percent::1024     0.576172                       # Percentage of cache occupancy per task id
system.cpu.icache.tags.tag_accesses           6046997                       # Number of tag accesses
system.cpu.icache.tags.data_accesses          6046997                       # Number of data accesses
system.cpu.icache.tags.power_state.pwrStateResidencyTicks::UNDEFINED 433321776000                       # Cumulative time (in ticks) in various power states
system.cpu.itb.instHits                             0                       # ITB inst hits
system.cpu.itb.instMisses                           0                       # ITB inst misses
system.cpu.itb.readHits                             0                       # DTB read hits
system.cpu.itb.readMisses                           0                       # DTB read misses
system.cpu.itb.writeHits                            0                       # DTB write hits
system.cpu.itb.writeMisses                          0                       # DTB write misses
system.cpu.itb.inserts                              0                       # Number of times an entry is inserted into the TLB
system.cpu.itb.flushTlb                             0                       # Number of times complete TLB was flushed
system.cpu.itb.flushTlbMva                          0                       # Number of times TLB was flushed by MVA
system.cpu.itb.flushTlbMvaAsid                      0                       # Number of times TLB was flushed by MVA & ASID
system.cpu.itb.flushTlbAsid                         0                       # Number of times TLB was flushed by ASID
system.cpu.itb.flushedEntries                       0                       # Number of entries that have been flushed from TLB
system.cpu.itb.alignFaults                          0                       # Number of TLB faults due to alignment restrictions
system.cpu.itb.prefetchFaults                       0                       # Number of TLB faults due to prefetch
system.cpu.itb.domainFaults                         0                       # Number of TLB faults due to domain restrictions
system.cpu.itb.permsFaults                          0                       # Number of TLB faults due to permissions restrictions
system.cpu.itb.readAccesses                         0                       # DTB read accesses
system.cpu.itb.writeAccesses                        0                       # DTB write accesses
system.cpu.itb.instAccesses                         0                       # ITB inst accesses
system.cpu.itb.hits                                 0                       # Total TLB (inst and data) hits
system.cpu.itb.misses                               0                       # Total TLB (inst and data) misses
system.cpu.itb.accesses                             0                       # Total TLB (inst and data) accesses
system.cpu.itb.stage2_mmu.stage2_tlb.instHits            0                       # ITB inst hits
system.cpu.itb.stage2_mmu.stage2_tlb.instMisses            0                       # ITB inst misses
system.cpu.itb.stage2_mmu.stage2_tlb.readHits            0                       # DTB read hits
system.cpu.itb.stage2_mmu.stage2_tlb.readMisses            0                       # DTB read misses
system.cpu.itb.stage2_mmu.stage2_tlb.writeHits            0                       # DTB write hits
system.cpu.itb.stage2_mmu.stage2_tlb.writeMisses            0                       # DTB write misses
system.cpu.itb.stage2_mmu.stage2_tlb.inserts            0                       # Number of times an entry is inserted into the TLB
system.cpu.itb.stage2_mmu.stage2_tlb.flushTlb            0                       # Number of times complete TLB was flushed
system.cpu.itb.stage2_mmu.stage2_tlb.flushTlbMva            0                       # Number of times TLB was flushed by MVA
system.cpu.itb.stage2_mmu.stage2_tlb.flushTlbMvaAsid            0                       # Number of times TLB was flushed by MVA & ASID
system.cpu.itb.stage2_mmu.stage2_tlb.flushTlbAsid            0                       # Number of times TLB was flushed by ASID
system.cpu.itb.stage2_mmu.stage2_tlb.flushedEntries            0                       # Number of entries that have been flushed from TLB
system.cpu.itb.stage2_mmu.stage2_tlb.alignFaults            0                       # Number of TLB faults due to alignment restrictions
system.cpu.itb.stage2_mmu.stage2_tlb.prefetchFaults            0                       # Number of TLB faults due to prefetch
system.cpu.itb.stage2_mmu.stage2_tlb.domainFaults            0                       # Number of TLB faults due to domain restrictions
system.cpu.itb.stage2_mmu.stage2_tlb.permsFaults            0                       # Number of TLB faults due to permissions restrictions
system.cpu.itb.stage2_mmu.stage2_tlb.readAccesses            0                       # DTB read accesses
system.cpu.itb.stage2_mmu.stage2_tlb.writeAccesses            0                       # DTB write accesses
system.cpu.itb.stage2_mmu.stage2_tlb.instAccesses            0                       # ITB inst accesses
system.cpu.itb.stage2_mmu.stage2_tlb.hits            0                       # Total TLB (inst and data) hits
system.cpu.itb.stage2_mmu.stage2_tlb.misses            0                       # Total TLB (inst and data) misses
system.cpu.itb.stage2_mmu.stage2_tlb.accesses            0                       # Total TLB (inst and data) accesses
system.cpu.itb.stage2_mmu.stage2_tlb.walker.walks            0                       # Table walker walks requested
system.cpu.itb.stage2_mmu.stage2_tlb.walker.requestOrigin_Requested::Data            0                       # Table walker requests started/completed, data/inst
system.cpu.itb.stage2_mmu.stage2_tlb.walker.requestOrigin_Requested::Inst            0                       # Table walker requests started/completed, data/inst
system.cpu.itb.stage2_mmu.stage2_tlb.walker.requestOrigin_Requested::total            0                       # Table walker requests started/completed, data/inst
system.cpu.itb.stage2_mmu.stage2_tlb.walker.requestOrigin_Completed::Data            0                       # Table walker requests started/completed, data/inst
system.cpu.itb.stage2_mmu.stage2_tlb.walker.requestOrigin_Completed::Inst            0                       # Table walker requests started/completed, data/inst
system.cpu.itb.stage2_mmu.stage2_tlb.walker.requestOrigin_Completed::total            0                       # Table walker requests started/completed, data/inst
system.cpu.itb.stage2_mmu.stage2_tlb.walker.requestOrigin::total            0                       # Table walker requests started/completed, data/inst
system.cpu.itb.stage2_mmu.stage2_tlb.walker.power_state.pwrStateResidencyTicks::UNDEFINED 433321776000                       # Cumulative time (in ticks) in various power states
system.cpu.itb.walker.walks                         0                       # Table walker walks requested
system.cpu.itb.walker.requestOrigin_Requested::Data            0                       # Table walker requests started/completed, data/inst
system.cpu.itb.walker.requestOrigin_Requested::Inst            0                       # Table walker requests started/completed, data/inst
system.cpu.itb.walker.requestOrigin_Requested::total            0                       # Table walker requests started/completed, data/inst
system.cpu.itb.walker.requestOrigin_Completed::Data            0                       # Table walker requests started/completed, data/inst
system.cpu.itb.walker.requestOrigin_Completed::Inst            0                       # Table walker requests started/completed, data/inst
system.cpu.itb.walker.requestOrigin_Completed::total            0                       # Table walker requests started/completed, data/inst
system.cpu.itb.walker.requestOrigin::total            0                       # Table walker requests started/completed, data/inst
system.cpu.itb.walker.power_state.pwrStateResidencyTicks::UNDEFINED 433321776000                       # Cumulative time (in ticks) in various power states
system.cpu.power_state.pwrStateResidencyTicks::ON 433321776000                       # Cumulative time (in ticks) in various power states
system.cpu.thread_0.numInsts                100000000                       # Number of Instructions committed
system.cpu.thread_0.numOps                  100003638                       # Number of Ops committed
system.cpu.thread_0.numMemRefs                      0                       # Number of Memory References
system.cpu_clk_domain.clock                      2000                       # Clock period in ticks
system.cpu_voltage_domain.voltage                   1                       # Voltage in Volts
system.l2.demand_hits::.cpu.inst                  242                       # number of demand (read+write) hits
system.l2.demand_hits::.cpu.data                40706                       # number of demand (read+write) hits
system.l2.demand_hits::total                    40948                       # number of demand (read+write) hits
system.l2.overall_hits::.cpu.inst                 242                       # number of overall hits
system.l2.overall_hits::.cpu.data               40706                       # number of overall hits
system.l2.overall_hits::total                   40948                       # number of overall hits
system.l2.demand_misses::.cpu.inst                492                       # number of demand (read+write) misses
system.l2.demand_misses::.cpu.data            1487620                       # number of demand (read+write) misses
system.l2.demand_misses::total                1488112                       # number of demand (read+write) misses
system.l2.overall_misses::.cpu.inst               492                       # number of overall misses
system.l2.overall_misses::.cpu.data           1487620                       # number of overall misses
system.l2.overall_misses::total               1488112                       # number of overall misses
system.l2.demand_miss_latency::.cpu.inst     68570000                       # number of demand (read+write) miss cycles
system.l2.demand_miss_latency::.cpu.data 206126936000                       # number of demand (read+write) miss cycles
system.l2.demand_miss_latency::total     206195506000                       # number of demand (read+write) miss cycles
system.l2.overall_miss_latency::.cpu.inst     68570000                       # number of overall miss cycles
system.l2.overall_miss_latency::.cpu.data 206126936000                       # number of overall miss cycles
system.l2.overall_miss_latency::total    206195506000                       # number of overall miss cycles
system.l2.demand_accesses::.cpu.inst              734                       # number of demand (read+write) accesses
system.l2.demand_accesses::.cpu.data          1528326                       # number of demand (read+write) accesses
system.l2.demand_accesses::total              1529060                       # number of demand (read+write) accesses
system.l2.overall_accesses::.cpu.inst             734                       # number of overall (read+write) accesses
system.l2.overall_accesses::.cpu.data         1528326                       # number of overall (read+write) accesses
system.l2.overall_accesses::total             1529060                       # number of overall (read+write) accesses
system.l2.demand_miss_rate::.cpu.inst        0.670300                       # miss rate for demand accesses
system.l2.demand_miss_rate::.cpu.data        0.973366                       # miss rate for demand accesses
system.l2.demand_miss_rate::total            0.973220                       # miss rate for demand accesses
system.l2.overall_miss_rate::.cpu.inst       0.670300                       # miss rate for overall accesses
system.l2.overall_miss_rate::.cpu.data       0.973366                       # miss rate for overall accesses
system.l2.overall_miss_rate::total           0.973220                       # miss rate for overall accesses
system.l2.demand_avg_miss_latency::.cpu.inst 139369.918699                       # average overall miss latency
system.l2.demand_avg_miss_latency::.cpu.data 138561.552009                       # average overall miss latency
system.l2.demand_avg_miss_latency::total 138561.819272                       # average overall miss latency
system.l2.overall_avg_miss_latency::.cpu.inst 139369.918699                       # average overall miss latency
system.l2.overall_avg_miss_latency::.cpu.data 138561.552009                       # average overall miss latency
system.l2.overall_avg_miss_latency::total 138561.819272                       # average overall miss latency
system.l2.blocked_cycles::no_mshrs                  0                       # number of cycles access was blocked
system.l2.blocked_cycles::no_targets                0                       # number of cycles access was blocked
system.l2.blocked::no_mshrs                         0                       # number of cycles access was blocked
system.l2.blocked::no_targets                       0                       # number of cycles access was blocked
system.l2.avg_blocked_cycles::no_mshrs            nan                       # average number of cycles each access was blocked
system.l2.avg_blocked_cycles::no_targets          nan                       # average number of cycles each access was blocked
system.l2.writebacks::.writebacks             1454756                       # number of writebacks
system.l2.writebacks::total                   1454756                       # number of writebacks
system.l2.demand_mshr_hits::.cpu.inst               1                       # number of demand (read+write) MSHR hits
system.l2.demand_mshr_hits::.cpu.data               3                       # number of demand (read+write) MSHR hits
system.l2.demand_mshr_hits::total                   4                       # number of demand (read+write) MSHR hits
system.l2.overall_mshr_hits::.cpu.inst              1                       # number of overall MSHR hits
system.l2.overall_mshr_hits::.cpu.data              3                       # number of overall MSHR hits
system.l2.overall_mshr_hits::total                  4                       # number of overall MSHR hits
system.l2.demand_mshr_misses::.cpu.inst           491                       # number of demand (read+write) MSHR misses
system.l2.demand_mshr_misses::.cpu.data       1487617                       # number of demand (read+write) MSHR misses
system.l2.demand_mshr_misses::total           1488108                       # number of demand (read+write) MSHR misses
system.l2.overall_mshr_misses::.cpu.inst          491                       # number of overall MSHR misses
system.l2.overall_mshr_misses::.cpu.data      1487617                       # number of overall MSHR misses
system.l2.overall_mshr_misses::total          1488108                       # number of overall MSHR misses
system.l2.demand_mshr_miss_latency::.cpu.inst     48325000                       # number of demand (read+write) MSHR miss cycles
system.l2.demand_mshr_miss_latency::.cpu.data 145161752000                       # number of demand (read+write) MSHR miss cycles
system.l2.demand_mshr_miss_latency::total 145210077000                       # number of demand (read+write) MSHR miss cycles
system.l2.overall_mshr_miss_latency::.cpu.inst     48325000                       # number of overall MSHR miss cycles
system.l2.overall_mshr_miss_latency::.cpu.data 145161752000                       # number of overall MSHR miss cycles
system.l2.overall_mshr_miss_latency::total 145210077000                       # number of overall MSHR miss cycles
system.l2.demand_mshr_miss_rate::.cpu.inst     0.668937                       # mshr miss rate for demand accesses
system.l2.demand_mshr_miss_rate::.cpu.data     0.973364                       # mshr miss rate for demand accesses
system.l2.demand_mshr_miss_rate::total       0.973218                       # mshr miss rate for demand accesses
system.l2.overall_mshr_miss_rate::.cpu.inst     0.668937                       # mshr miss rate for overall accesses
system.l2.overall_mshr_miss_rate::.cpu.data     0.973364                       # mshr miss rate for overall accesses
system.l2.overall_mshr_miss_rate::total      0.973218                       # mshr miss rate for overall accesses
system.l2.demand_avg_mshr_miss_latency::.cpu.inst 98421.588595                       # average overall mshr miss latency
system.l2.demand_avg_mshr_miss_latency::.cpu.data 97580.057232                       # average overall mshr miss latency
system.l2.demand_avg_mshr_miss_latency::total 97580.334895                       # average overall mshr miss latency
system.l2.overall_avg_mshr_miss_latency::.cpu.inst 98421.588595                       # average overall mshr miss latency
system.l2.overall_avg_mshr_miss_latency::.cpu.data 97580.057232                       # average overall mshr miss latency
system.l2.overall_avg_mshr_miss_latency::total 97580.334895                       # average overall mshr miss latency
system.l2.replacements                        1455339                       # number of replacements
system.l2.WritebackDirty_hits::.writebacks      1516074                       # number of WritebackDirty hits
system.l2.WritebackDirty_hits::total          1516074                       # number of WritebackDirty hits
system.l2.WritebackDirty_accesses::.writebacks      1516074                       # number of WritebackDirty accesses(hits+misses)
system.l2.WritebackDirty_accesses::total      1516074                       # number of WritebackDirty accesses(hits+misses)
system.l2.WritebackClean_hits::.writebacks          426                       # number of WritebackClean hits
system.l2.WritebackClean_hits::total              426                       # number of WritebackClean hits
system.l2.WritebackClean_accesses::.writebacks          426                       # number of WritebackClean accesses(hits+misses)
system.l2.WritebackClean_accesses::total          426                       # number of WritebackClean accesses(hits+misses)
system.l2.ReadExReq_hits::.cpu.data             17435                       # number of ReadExReq hits
system.l2.ReadExReq_hits::total                 17435                       # number of ReadExReq hits
system.l2.ReadExReq_misses::.cpu.data         1487505                       # number of ReadExReq misses
system.l2.ReadExReq_misses::total             1487505                       # number of ReadExReq misses
system.l2.ReadExReq_miss_latency::.cpu.data 206110490000                       # number of ReadExReq miss cycles
system.l2.ReadExReq_miss_latency::total  206110490000                       # number of ReadExReq miss cycles
system.l2.ReadExReq_accesses::.cpu.data       1504940                       # number of ReadExReq accesses(hits+misses)
system.l2.ReadExReq_accesses::total           1504940                       # number of ReadExReq accesses(hits+misses)
system.l2.ReadExReq_miss_rate::.cpu.data     0.988415                       # miss rate for ReadExReq accesses
system.l2.ReadExReq_miss_rate::total         0.988415                       # miss rate for ReadExReq accesses
system.l2.ReadExReq_avg_miss_latency::.cpu.data 138561.208198                       # average ReadExReq miss latency
system.l2.ReadExReq_avg_miss_latency::total 138561.208198                       # average ReadExReq miss latency
system.l2.ReadExReq_mshr_misses::.cpu.data      1487505                       # number of ReadExReq MSHR misses
system.l2.ReadExReq_mshr_misses::total        1487505                       # number of ReadExReq MSHR misses
system.l2.ReadExReq_mshr_miss_latency::.cpu.data 145150256000                       # number of ReadExReq MSHR miss cycles
system.l2.ReadExReq_mshr_miss_latency::total 145150256000                       # number of ReadExReq MSHR miss cycles
system.l2.ReadExReq_mshr_miss_rate::.cpu.data     0.988415                       # mshr miss rate for ReadExReq accesses
system.l2.ReadExReq_mshr_miss_rate::total     0.988415                       # mshr miss rate for ReadExReq accesses
system.l2.ReadExReq_avg_mshr_miss_latency::.cpu.data 97579.676035                       # average ReadExReq mshr miss latency
system.l2.ReadExReq_avg_mshr_miss_latency::total 97579.676035                       # average ReadExReq mshr miss latency
system.l2.ReadCleanReq_hits::.cpu.inst            242                       # number of ReadCleanReq hits
system.l2.ReadCleanReq_hits::total                242                       # number of ReadCleanReq hits
system.l2.ReadCleanReq_misses::.cpu.inst          492                       # number of ReadCleanReq misses
system.l2.ReadCleanReq_misses::total              492                       # number of ReadCleanReq misses
system.l2.ReadCleanReq_miss_latency::.cpu.inst     68570000                       # number of ReadCleanReq miss cycles
system.l2.ReadCleanReq_miss_latency::total     68570000                       # number of ReadCleanReq miss cycles
system.l2.ReadCleanReq_accesses::.cpu.inst          734                       # number of ReadCleanReq accesses(hits+misses)
system.l2.ReadCleanReq_accesses::total            734                       # number of ReadCleanReq accesses(hits+misses)
system.l2.ReadCleanReq_miss_rate::.cpu.inst     0.670300                       # miss rate for ReadCleanReq accesses
system.l2.ReadCleanReq_miss_rate::total      0.670300                       # miss rate for ReadCleanReq accesses
system.l2.ReadCleanReq_avg_miss_latency::.cpu.inst 139369.918699                       # average ReadCleanReq miss latency
system.l2.ReadCleanReq_avg_miss_latency::total 139369.918699                       # average ReadCleanReq miss latency
system.l2.ReadCleanReq_mshr_hits::.cpu.inst            1                       # number of ReadCleanReq MSHR hits
system.l2.ReadCleanReq_mshr_hits::total             1                       # number of ReadCleanReq MSHR hits
system.l2.ReadCleanReq_mshr_misses::.cpu.inst          491                       # number of ReadCleanReq MSHR misses
system.l2.ReadCleanReq_mshr_misses::total          491                       # number of ReadCleanReq MSHR misses
system.l2.ReadCleanReq_mshr_miss_latency::.cpu.inst     48325000                       # number of ReadCleanReq MSHR miss cycles
system.l2.ReadCleanReq_mshr_miss_latency::total     48325000                       # number of ReadCleanReq MSHR miss cycles
system.l2.ReadCleanReq_mshr_miss_rate::.cpu.inst     0.668937                       # mshr miss rate for ReadCleanReq accesses
system.l2.ReadCleanReq_mshr_miss_rate::total     0.668937                       # mshr miss rate for ReadCleanReq accesses
system.l2.ReadCleanReq_avg_mshr_miss_latency::.cpu.inst 98421.588595                       # average ReadCleanReq mshr miss latency
system.l2.ReadCleanReq_avg_mshr_miss_latency::total 98421.588595                       # average ReadCleanReq mshr miss latency
system.l2.ReadSharedReq_hits::.cpu.data         23271                       # number of ReadSharedReq hits
system.l2.ReadSharedReq_hits::total             23271                       # number of ReadSharedReq hits
system.l2.ReadSharedReq_misses::.cpu.data          115                       # number of ReadSharedReq misses
system.l2.ReadSharedReq_misses::total             115                       # number of ReadSharedReq misses
system.l2.ReadSharedReq_miss_latency::.cpu.data     16446000                       # number of ReadSharedReq miss cycles
system.l2.ReadSharedReq_miss_latency::total     16446000                       # number of ReadSharedReq miss cycles
system.l2.ReadSharedReq_accesses::.cpu.data        23386                       # number of ReadSharedReq accesses(hits+misses)
system.l2.ReadSharedReq_accesses::total         23386                       # number of ReadSharedReq accesses(hits+misses)
system.l2.ReadSharedReq_miss_rate::.cpu.data     0.004917                       # miss rate for ReadSharedReq accesses
system.l2.ReadSharedReq_miss_rate::total     0.004917                       # miss rate for ReadSharedReq accesses
system.l2.ReadSharedReq_avg_miss_latency::.cpu.data 143008.695652                       # average ReadSharedReq miss latency
system.l2.ReadSharedReq_avg_miss_latency::total 143008.695652                       # average ReadSharedReq miss latency
system.l2.ReadSharedReq_mshr_hits::.cpu.data            3                       # number of ReadSharedReq MSHR hits
system.l2.ReadSharedReq_mshr_hits::total            3                       # number of ReadSharedReq MSHR hits
system.l2.ReadSharedReq_mshr_misses::.cpu.data          112                       # number of ReadSharedReq MSHR misses
system.l2.ReadSharedReq_mshr_misses::total          112                       # number of ReadSharedReq MSHR misses
system.l2.ReadSharedReq_mshr_miss_latency::.cpu.data     11496000                       # number of ReadSharedReq MSHR miss cycles
system.l2.ReadSharedReq_mshr_miss_latency::total     11496000                       # number of ReadSharedReq MSHR miss cycles
system.l2.ReadSharedReq_mshr_miss_rate::.cpu.data     0.004789                       # mshr miss rate for ReadSharedReq accesses
system.l2.ReadSharedReq_mshr_miss_rate::total     0.004789                       # mshr miss rate for ReadSharedReq accesses
system.l2.ReadSharedReq_avg_mshr_miss_latency::.cpu.data 102642.857143                       # average ReadSharedReq mshr miss latency
system.l2.ReadSharedReq_avg_mshr_miss_latency::total 102642.857143                       # average ReadSharedReq mshr miss latency
system.l2.power_state.pwrStateResidencyTicks::UNDEFINED 433321776000                       # Cumulative time (in ticks) in various power states
system.l2.tags.tagsinuse                 32410.066094                       # Cycle average of tags in use
system.l2.tags.total_refs                     3045651                       # Total number of references to valid blocks.
system.l2.tags.sampled_refs                   1488107                       # Sample count of references to valid blocks.
system.l2.tags.avg_refs                      2.046661                       # Average number of references to valid blocks.
system.l2.tags.warmup_cycle                    111000                       # Cycle when the warmup percentage was hit.
system.l2.tags.occ_blocks::.cpu.inst        11.218727                       # Average occupied blocks per requestor
system.l2.tags.occ_blocks::.cpu.data     32398.847367                       # Average occupied blocks per requestor
system.l2.tags.occ_percent::.cpu.inst        0.000342                       # Average percentage of cache occupancy
system.l2.tags.occ_percent::.cpu.data        0.988734                       # Average percentage of cache occupancy
system.l2.tags.occ_percent::total            0.989077                       # Average percentage of cache occupancy
system.l2.tags.occ_task_id_blocks::1024         32768                       # Occupied blocks per task id
system.l2.tags.age_task_id_blocks_1024::0           34                       # Occupied blocks per task id
system.l2.tags.age_task_id_blocks_1024::1          310                       # Occupied blocks per task id
system.l2.tags.age_task_id_blocks_1024::2         3090                       # Occupied blocks per task id
system.l2.tags.age_task_id_blocks_1024::3        29332                       # Occupied blocks per task id
system.l2.tags.age_task_id_blocks_1024::4            2                       # Occupied blocks per task id
system.l2.tags.occ_task_id_percent::1024            1                       # Percentage of cache occupancy per task id
system.l2.tags.tag_accesses                  25853355                       # Number of tag accesses
system.l2.tags.data_accesses                 25853355                       # Number of data accesses
system.l2.tags.power_state.pwrStateResidencyTicks::UNDEFINED 433321776000                       # Cumulative time (in ticks) in various power states
system.mem_ctrls.avgPriority_.writebacks::samples   1454756.00                       # Average QoS priority value for accepted requests
system.mem_ctrls.avgPriority_.cpu.inst::samples       491.00                       # Average QoS priority value for accepted requests
system.mem_ctrls.avgPriority_.cpu.data::samples   1487616.00                       # Average QoS priority value for accepted requests
system.mem_ctrls.priorityMinLatency      0.000000018750                       # per QoS priority minimum request to response latency (s)
system.mem_ctrls.priorityMaxLatency      0.002376119250                       # per QoS priority maximum request to response latency (s)
system.mem_ctrls.numReadWriteTurnArounds        80834                       # Number of turnarounds from READ to WRITE
system.mem_ctrls.numWriteReadTurnArounds        80834                       # Number of turnarounds from WRITE to READ
system.mem_ctrls.numStayReadState             4539072                       # Number of times bus staying in READ state
system.mem_ctrls.numStayWriteState            1376026                       # Number of times bus staying in WRITE state
system.mem_ctrls.readReqs                     1488107                       # Number of read requests accepted
system.mem_ctrls.writeReqs                    1454756                       # Number of write requests accepted
system.mem_ctrls.readBursts                   1488107                       # Number of controller read bursts, including those serviced by the write queue
system.mem_ctrls.writeBursts                  1454756                       # Number of controller write bursts, including those merged in the write queue
system.mem_ctrls.servicedByWrQ                      0                       # Number of controller read bursts serviced by the write queue
system.mem_ctrls.mergedWrBursts                     0                       # Number of controller write bursts merged with an existing one
system.mem_ctrls.neitherReadNorWriteReqs            0                       # Number of requests that are neither read nor write
system.mem_ctrls.avgRdQLen                       1.00                       # Average read queue length when enqueuing
system.mem_ctrls.avgWrQLen                      24.04                       # Average write queue length when enqueuing
system.mem_ctrls.numRdRetry                         0                       # Number of times read queue was full causing retry
system.mem_ctrls.numWrRetry                         0                       # Number of times write queue was full causing retry
system.mem_ctrls.readPktSize::0                     0                       # Read request sizes (log2)
system.mem_ctrls.readPktSize::1                     0                       # Read request sizes (log2)
system.mem_ctrls.readPktSize::2                     0                       # Read request sizes (log2)
system.mem_ctrls.readPktSize::3                     0                       # Read request sizes (log2)
system.mem_ctrls.readPktSize::4                     0                       # Read request sizes (log2)
system.mem_ctrls.readPktSize::5                     0                       # Read request sizes (log2)
system.mem_ctrls.readPktSize::6               1488107                       # Read request sizes (log2)
system.mem_ctrls.writePktSize::0                    0                       # Write request sizes (log2)
[...]
system.mem_ctrls.dram.bw_write::.writebacks    214862001                       # Write bandwidth from this memory (bytes/s)
system.mem_ctrls.dram.bw_write::total       214862001                       # Write bandwidth from this memory (bytes/s)
system.mem_ctrls.dram.bw_total::.writebacks    214862001                       # Total bandwidth to/from this memory (bytes/s)
system.mem_ctrls.dram.bw_total::.cpu.inst        72519                       # Total bandwidth to/from this memory (bytes/s)
system.mem_ctrls.dram.bw_total::.cpu.data    219715300                       # Total bandwidth to/from this memory (bytes/s)
system.mem_ctrls.dram.bw_total::total       434649820                       # Total bandwidth to/from this memory (bytes/s)
system.mem_ctrls.dram.readBursts              1488107                       # Number of DRAM read bursts
system.mem_ctrls.dram.writeBursts             1454727                       # Number of DRAM write bursts
system.mem_ctrls.dram.perBankRdBursts::0        93065                       # Per bank write bursts
system.mem_ctrls.dram.perBankRdBursts::1        92958                       # Per bank write bursts
system.mem_ctrls.dram.perBankRdBursts::2        92992                       # Per bank write bursts
system.mem_ctrls.dram.perBankRdBursts::3        92938                       # Per bank write bursts
system.mem_ctrls.dram.perBankRdBursts::4        93037                       # Per bank write bursts
system.mem_ctrls.dram.perBankRdBursts::5        93074                       # Per bank write bursts
system.mem_ctrls.dram.perBankRdBursts::6        93061                       # Per bank write bursts
system.mem_ctrls.dram.perBankRdBursts::7        93078                       # Per bank write bursts
system.mem_ctrls.dram.perBankRdBursts::8        93156                       # Per bank write bursts
system.mem_ctrls.dram.perBankRdBursts::9        92949                       # Per bank write bursts
system.mem_ctrls.dram.perBankRdBursts::10        92955                       # Per bank write bursts
system.mem_ctrls.dram.perBankRdBursts::11        92953                       # Per bank write bursts
system.mem_ctrls.dram.perBankRdBursts::12        92999                       # Per bank write bursts
system.mem_ctrls.dram.perBankRdBursts::13        92951                       # Per bank write bursts
system.mem_ctrls.dram.perBankRdBursts::14        92955                       # Per bank write bursts
system.mem_ctrls.dram.perBankRdBursts::15        92986                       # Per bank write bursts
system.mem_ctrls.dram.perBankWrBursts::0        90925                       # Per bank write bursts
system.mem_ctrls.dram.perBankWrBursts::1        90905                       # Per bank write bursts
system.mem_ctrls.dram.perBankWrBursts::2        90895                       # Per bank write bursts
system.mem_ctrls.dram.perBankWrBursts::3        90886                       # Per bank write bursts
system.mem_ctrls.dram.perBankWrBursts::4        90945                       # Per bank write bursts
system.mem_ctrls.dram.perBankWrBursts::5        91008                       # Per bank write bursts
system.mem_ctrls.dram.perBankWrBursts::6        91008                       # Per bank write bursts
system.mem_ctrls.dram.perBankWrBursts::7        91008                       # Per bank write bursts
system.mem_ctrls.dram.perBankWrBursts::8        90984                       # Per bank write bursts
system.mem_ctrls.dram.perBankWrBursts::9        90880                       # Per bank write bursts
system.mem_ctrls.dram.perBankWrBursts::10        90880                       # Per bank write bursts
system.mem_ctrls.dram.perBankWrBursts::11        90880                       # Per bank write bursts
system.mem_ctrls.dram.perBankWrBursts::12        90880                       # Per bank write bursts
system.mem_ctrls.dram.perBankWrBursts::13        90880                       # Per bank write bursts
system.mem_ctrls.dram.perBankWrBursts::14        90880                       # Per bank write bursts
system.mem_ctrls.dram.perBankWrBursts::15        90883                       # Per bank write bursts
system.mem_ctrls.dram.totQLat              9757573250                       # Total ticks spent queuing
system.mem_ctrls.dram.totBusLat            7440535000                       # Total ticks spent in databus transfers
system.mem_ctrls.dram.totMemAccLat        37659579500                       # Total ticks spent from burst creation until serviced by the DRAM
system.mem_ctrls.dram.avgQLat                 6557.04                       # Average queueing delay per DRAM burst
system.mem_ctrls.dram.avgBusLat               5000.00                       # Average bus latency per DRAM burst
system.mem_ctrls.dram.avgMemAccLat           25307.04                       # Average memory access latency per DRAM burst
system.mem_ctrls.dram.readRowHits             1309639                       # Number of row buffer hits during reads
system.mem_ctrls.dram.writeRowHits            1291417                       # Number of row buffer hits during writes
system.mem_ctrls.dram.readRowHitRate            88.01                       # Row buffer hit rate for reads
system.mem_ctrls.dram.writeRowHitRate           88.77                       # Row buffer hit rate for writes
system.mem_ctrls.dram.bytesPerActivate::samples       341777                       # Bytes accessed per row activation
system.mem_ctrls.dram.bytesPerActivate::mean   551.064349                       # Bytes accessed per row activation
system.mem_ctrls.dram.bytesPerActivate::gmean   370.504763                       # Bytes accessed per row activation
system.mem_ctrls.dram.bytesPerActivate::stdev   398.340893                       # Bytes accessed per row activation
system.mem_ctrls.dram.bytesPerActivate::0-127        22325      6.53%      6.53% # Bytes accessed per row activation
system.mem_ctrls.dram.bytesPerActivate::128-255       108629     31.78%     38.32% # Bytes accessed per row activation
system.mem_ctrls.dram.bytesPerActivate::256-383        20640      6.04%     44.35% # Bytes accessed per row activation
system.mem_ctrls.dram.bytesPerActivate::384-511        15906      4.65%     49.01% # Bytes accessed per row activation
system.mem_ctrls.dram.bytesPerActivate::512-639        14307      4.19%     53.19% # Bytes accessed per row activation
system.mem_ctrls.dram.bytesPerActivate::640-767        19177      5.61%     58.81% # Bytes accessed per row activation
system.mem_ctrls.dram.bytesPerActivate::768-895        14543      4.26%     63.06% # Bytes accessed per row activation
system.mem_ctrls.dram.bytesPerActivate::896-1023        15618      4.57%     67.63% # Bytes accessed per row activation
system.mem_ctrls.dram.bytesPerActivate::1024-1151       110632     32.37%    100.00% # Bytes accessed per row activation
system.mem_ctrls.dram.bytesPerActivate::total       341777                       # Bytes accessed per row activation
system.mem_ctrls.dram.bytesRead              95238848                       # Total number of bytes read from DRAM
system.mem_ctrls.dram.bytesWritten           93102528                       # Total number of bytes written to DRAM
system.mem_ctrls.dram.avgRdBW              219.787819                       # Average DRAM read bandwidth in MiBytes/s
system.mem_ctrls.dram.avgWrBW              214.857718                       # Average DRAM write bandwidth in MiBytes/s
system.mem_ctrls.dram.peakBW                 12800.00                       # Theoretical peak bandwidth in MiByte/s
system.mem_ctrls.dram.busUtil                    3.40                       # Data bus utilization in percentage
system.mem_ctrls.dram.busUtilRead                1.72                       # Data bus utilization in percentage for reads
system.mem_ctrls.dram.busUtilWrite               1.68                       # Data bus utilization in percentage for writes
system.mem_ctrls.dram.pageHitRate               88.39                       # Row buffer hit rate, read and write combined
system.mem_ctrls.dram.power_state.pwrStateResidencyTicks::UNDEFINED 433321776000                       # Cumulative time (in ticks) in various power states
system.mem_ctrls.dram.rank0.actEnergy      1220090340                       # Energy for activate commands per rank (pJ)
system.mem_ctrls.dram.rank0.preEnergy       648493395                       # Energy for precharge commands per rank (pJ)
system.mem_ctrls.dram.rank0.readEnergy     5313609420                       # Energy for read commands per rank (pJ)
system.mem_ctrls.dram.rank0.writeEnergy    3797967600                       # Energy for write commands per rank (pJ)
system.mem_ctrls.dram.rank0.refreshEnergy 34205945280.000004                       # Energy for refresh commands per rank (pJ)
system.mem_ctrls.dram.rank0.actBackEnergy 101084422440                       # Energy for active background per rank (pJ)
system.mem_ctrls.dram.rank0.preBackEnergy  81271837920                       # Energy for precharge background per rank (pJ)
system.mem_ctrls.dram.rank0.actPowerDownEnergy            0                       # Energy for active power-down per rank (pJ)
system.mem_ctrls.dram.rank0.prePowerDownEnergy            0                       # Energy for precharge power-down per rank (pJ)
system.mem_ctrls.dram.rank0.selfRefreshEnergy            0                       # Energy for self refresh per rank (pJ)
system.mem_ctrls.dram.rank0.totalEnergy  227542366395                       # Total energy per rank (pJ)
system.mem_ctrls.dram.rank0.averagePower   525.111774                       # Core power per rank (mW)
system.mem_ctrls.dram.rank0.totalIdleTime            0                       # Total Idle time Per DRAM Rank
system.mem_ctrls.dram.rank0.pwrStateTime::IDLE 209017295500                       # Time in different power states
system.mem_ctrls.dram.rank0.pwrStateTime::REF  14469520000                       # Time in different power states
system.mem_ctrls.dram.rank0.pwrStateTime::SREF            0                       # Time in different power states
system.mem_ctrls.dram.rank0.pwrStateTime::PRE_PDN            0                       # Time in different power states
system.mem_ctrls.dram.rank0.pwrStateTime::ACT 209834960500                       # Time in different power states
system.mem_ctrls.dram.rank0.pwrStateTime::ACT_PDN            0                       # Time in different power states
system.mem_ctrls.dram.rank1.actEnergy      1220204580                       # Energy for activate commands per rank (pJ)
system.mem_ctrls.dram.rank1.preEnergy       648550320                       # Energy for precharge commands per rank (pJ)
system.mem_ctrls.dram.rank1.readEnergy     5311474560                       # Energy for read commands per rank (pJ)
system.mem_ctrls.dram.rank1.writeEnergy    3795707340                       # Energy for write commands per rank (pJ)
system.mem_ctrls.dram.rank1.refreshEnergy 34205945280.000004                       # Energy for refresh commands per rank (pJ)
system.mem_ctrls.dram.rank1.actBackEnergy 101469499620                       # Energy for active background per rank (pJ)
system.mem_ctrls.dram.rank1.preBackEnergy  80947562400                       # Energy for precharge background per rank (pJ)
system.mem_ctrls.dram.rank1.actPowerDownEnergy            0                       # Energy for active power-down per rank (pJ)
system.mem_ctrls.dram.rank1.prePowerDownEnergy            0                       # Energy for precharge power-down per rank (pJ)
system.mem_ctrls.dram.rank1.selfRefreshEnergy            0                       # Energy for self refresh per rank (pJ)
system.mem_ctrls.dram.rank1.totalEnergy  227598944100                       # Total energy per rank (pJ)
system.mem_ctrls.dram.rank1.averagePower   525.242341                       # Core power per rank (mW)
system.mem_ctrls.dram.rank1.totalIdleTime            0                       # Total Idle time Per DRAM Rank
system.mem_ctrls.dram.rank1.pwrStateTime::IDLE 208153528500                       # Time in different power states
system.mem_ctrls.dram.rank1.pwrStateTime::REF  14469520000                       # Time in different power states
system.mem_ctrls.dram.rank1.pwrStateTime::SREF            0                       # Time in different power states
system.mem_ctrls.dram.rank1.pwrStateTime::PRE_PDN            0                       # Time in different power states
system.mem_ctrls.dram.rank1.pwrStateTime::ACT 210698727500                       # Time in different power states
system.mem_ctrls.dram.rank1.pwrStateTime::ACT_PDN            0                       # Time in different power states
system.mem_ctrls.power_state.pwrStateResidencyTicks::UNDEFINED 433321776000                       # Cumulative time (in ticks) in various power states
system.membus.trans_dist::ReadResp                603                       # Transaction distribution
system.membus.trans_dist::WritebackDirty      1454756                       # Transaction distribution
system.membus.trans_dist::CleanEvict              289                       # Transaction distribution
system.membus.trans_dist::ReadExReq           1487504                       # Transaction distribution
system.membus.trans_dist::ReadExResp          1487504                       # Transaction distribution
system.membus.trans_dist::ReadSharedReq           603                       # Transaction distribution
system.membus.pkt_count_system.l2.mem_side_port::system.mem_ctrls.port      4431259                       # Packet count per connected requestor and responder (bytes)
system.membus.pkt_count::total                4431259                       # Packet count per connected requestor and responder (bytes)
system.membus.pkt_size_system.l2.mem_side_port::system.mem_ctrls.port    188343232                       # Cumulative packet size per connected requestor and responder (bytes)
system.membus.pkt_size::total               188343232                       # Cumulative packet size per connected requestor and responder (bytes)
system.membus.snoops                                0                       # Total snoops (count)
system.membus.snoopTraffic                          0                       # Total snoop traffic (bytes)
system.membus.snoop_fanout::samples           1488107                       # Request fanout histogram
system.membus.snoop_fanout::mean                    0                       # Request fanout histogram
system.membus.snoop_fanout::stdev                   0                       # Request fanout histogram
system.membus.snoop_fanout::underflows              0      0.00%      0.00% # Request fanout histogram
system.membus.snoop_fanout::0                 1488107    100.00%    100.00% # Request fanout histogram
system.membus.snoop_fanout::1                       0      0.00%    100.00% # Request fanout histogram
system.membus.snoop_fanout::overflows               0      0.00%    100.00% # Request fanout histogram
system.membus.snoop_fanout::min_value               0                       # Request fanout histogram
system.membus.snoop_fanout::max_value               0                       # Request fanout histogram
system.membus.snoop_fanout::total             1488107                       # Request fanout histogram
system.membus.power_state.pwrStateResidencyTicks::UNDEFINED 433321776000                       # Cumulative time (in ticks) in various power states
system.membus.reqLayer0.occupancy          8762176000                       # Layer occupancy (ticks)
system.membus.reqLayer0.utilization               2.0                       # Layer utilization (%)
system.membus.respLayer1.occupancy         7847320250                       # Layer occupancy (ticks)
system.membus.respLayer1.utilization              1.8                       # Layer utilization (%)
system.tol2bus.trans_dist::ReadResp             24120                       # Transaction distribution
system.tol2bus.trans_dist::WritebackDirty      2970830                       # Transaction distribution
system.tol2bus.trans_dist::WritebackClean          439                       # Transaction distribution
system.tol2bus.trans_dist::CleanEvict           12322                       # Transaction distribution
system.tol2bus.trans_dist::ReadExReq          1504940                       # Transaction distribution
system.tol2bus.trans_dist::ReadExResp         1504939                       # Transaction distribution
system.tol2bus.trans_dist::ReadCleanReq           734                       # Transaction distribution
system.tol2bus.trans_dist::ReadSharedReq        23386                       # Transaction distribution
system.tol2bus.pkt_count_system.cpu.icache.mem_side_port::system.l2.cpu_side_port         1907                       # Packet count per connected requestor and responder (bytes)
system.tol2bus.pkt_count_system.cpu.dcache.mem_side_port::system.l2.cpu_side_port      4584464                       # Packet count per connected requestor and responder (bytes)
system.tol2bus.pkt_count::total               4586371                       # Packet count per connected requestor and responder (bytes)
system.tol2bus.pkt_size_system.cpu.icache.mem_side_port::system.l2.cpu_side_port        75072                       # Cumulative packet size per connected requestor and responder (bytes)
system.tol2bus.pkt_size_system.cpu.dcache.mem_side_port::system.l2.cpu_side_port    194841536                       # Cumulative packet size per connected requestor and responder (bytes)
system.tol2bus.pkt_size::total              194916608                       # Cumulative packet size per connected requestor and responder (bytes)
system.tol2bus.snoops                         1455339                       # Total snoops (count)
system.tol2bus.snoopTraffic                  93104384                       # Total snoop traffic (bytes)
system.tol2bus.snoop_fanout::samples          2984399                       # Request fanout histogram
system.tol2bus.snoop_fanout::mean            0.004004                       # Request fanout histogram
system.tol2bus.snoop_fanout::stdev           0.063154                       # Request fanout histogram
system.tol2bus.snoop_fanout::underflows             0      0.00%      0.00% # Request fanout histogram
system.tol2bus.snoop_fanout::0                2972448     99.60%     99.60% # Request fanout histogram
system.tol2bus.snoop_fanout::1                  11951      0.40%    100.00% # Request fanout histogram
system.tol2bus.snoop_fanout::2                      0      0.00%    100.00% # Request fanout histogram
system.tol2bus.snoop_fanout::overflows              0      0.00%    100.00% # Request fanout histogram
system.tol2bus.snoop_fanout::min_value              0                       # Request fanout histogram
system.tol2bus.snoop_fanout::max_value              1                       # Request fanout histogram
system.tol2bus.snoop_fanout::total            2984399                       # Request fanout histogram
system.tol2bus.power_state.pwrStateResidencyTicks::UNDEFINED 433321776000                       # Cumulative time (in ticks) in various power states
system.tol2bus.reqLayer0.occupancy        12180676000                       # Layer occupancy (ticks)
system.tol2bus.reqLayer0.utilization              2.8                       # Layer utilization (%)
system.tol2bus.respLayer0.occupancy           4405999                       # Layer occupancy (ticks)
system.tol2bus.respLayer0.utilization             0.0                       # Layer utilization (%)
system.tol2bus.respLayer1.occupancy        9169957996                       # Layer occupancy (ticks)
system.tol2bus.respLayer1.utilization             2.1                       # Layer utilization (%)
system.voltage_domain.voltage                       1                       # Voltage in Volts

---------- End Simulation Statistics   ----------
