
---------- Begin Simulation Statistics ----------
final_tick                               773432294000                       # Number of ticks from beginning of simulation (restored from checkpoints and never reset)
host_inst_rate                                 167786                       # Simulator instruction rate (inst/s)
host_mem_usage                                 674112                       # Number of bytes of host memory used
host_op_rate                                   309094                       # Simulator op (including micro ops) rate (op/s)
host_seconds                                   596.00                       # Real time elapsed on the host
host_tick_rate                             1297712694                       # Simulator tick rate (ticks/s)
sim_freq                                 1000000000000                       # Frequency of simulated ticks
sim_insts                                   100000001                       # Number of instructions simulated
sim_ops                                     184218798                       # Number of ops (including micro ops) simulated
sim_seconds                                  0.773432                       # Number of seconds simulated
sim_ticks                                773432294000                       # Number of ticks simulated
system.cpu.committedInsts                   100000001                       # Number of instructions committed
system.cpu.committedOps                     184218798                       # Number of ops (including micro ops) committed
system.cpu.cpi                               3.867161                       # CPI: cycles per instruction
system.cpu.discardedOps                          4358                       # Number of ops (including micro ops) which were discarded before commit
system.cpu.idleCycles                       167662217                       # Total number of cycles that the object has spent stopped
system.cpu.ipc                               0.258588                       # IPC: instructions per cycle
system.cpu.numCycles                        386716147                       # number of cpu cycles simulated
system.cpu.numFetchSuspends                         0                       # Number of times Execute suspended instruction fetching
system.cpu.numWorkItemsCompleted                    0                       # number of work items this cpu completed
system.cpu.numWorkItemsStarted                      0                       # number of work items this cpu started
system.cpu.op_class_0::No_OpClass                   0      0.00%      0.00% # Class of committed instruction
system.cpu.op_class_0::IntAlu                97640478     53.00%     53.00% # Class of committed instruction
system.cpu.op_class_0::IntMult                 114699      0.06%     53.06% # Class of committed instruction
system.cpu.op_class_0::IntDiv                       0      0.00%     53.06% # Class of committed instruction
system.cpu.op_class_0::FloatAdd                     0      0.00%     53.06% # Class of committed instruction
system.cpu.op_class_0::FloatCmp                     0      0.00%     53.06% # Class of committed instruction
system.cpu.op_class_0::FloatCvt                     0      0.00%     53.06% # Class of committed instruction
system.cpu.op_class_0::FloatMult                    0      0.00%     53.06% # Class of committed instruction
system.cpu.op_class_0::FloatMultAcc                 0      0.00%     53.06% # Class of committed instruction
system.cpu.op_class_0::FloatDiv                     0      0.00%     53.06% # Class of committed instruction
system.cpu.op_class_0::FloatMisc                    0      0.00%     53.06% # Class of committed instruction
system.cpu.op_class_0::FloatSqrt                    0      0.00%     53.06% # Class of committed instruction
system.cpu.op_class_0::SimdAdd                      8      0.00%     53.06% # Class of committed instruction
system.cpu.op_class_0::SimdAddAcc                   0      0.00%     53.06% # Class of committed instruction
system.cpu.op_class_0::SimdAlu                      8      0.00%     53.06% # Class of committed instruction
system.cpu.op_class_0::SimdCmp                      6      0.00%     53.06% # Class of committed instruction
system.cpu.op_class_0::SimdCvt                      0      0.00%     53.06% # Class of committed instruction
system.cpu.op_class_0::SimdMisc                     1      0.00%     53.06% # Class of committed instruction
system.cpu.op_class_0::SimdMult                     0      0.00%     53.06% # Class of committed instruction
system.cpu.op_class_0::SimdMultAcc                  0      0.00%     53.06% # Class of committed instruction
system.cpu.op_class_0::SimdShift                    0      0.00%     53.06% # Class of committed instruction
system.cpu.op_class_0::SimdShiftAcc                 0      0.00%     53.06% # Class of committed instruction
system.cpu.op_class_0::SimdDiv                      0      0.00%     53.06% # Class of committed instruction
system.cpu.op_class_0::SimdSqrt                     0      0.00%     53.06% # Class of committed instruction
system.cpu.op_class_0::SimdFloatAdd                 0      0.00%     53.06% # Class of committed instruction
system.cpu.op_class_0::SimdFloatAlu                 0      0.00%     53.06% # Class of committed instruction
system.cpu.op_class_0::SimdFloatCmp                 0      0.00%     53.06% # Class of committed instruction
system.cpu.op_class_0::SimdFloatCvt                 0      0.00%     53.06% # Class of committed instruction
system.cpu.op_class_0::SimdFloatDiv                 0      0.00%     53.06% # Class of committed instruction
system.cpu.op_class_0::SimdFloatMisc               23      0.00%     53.06% # Class of committed instruction
system.cpu.op_class_0::SimdFloatMult                0      0.00%     53.06% # Class of committed instruction
system.cpu.op_class_0::SimdFloatMultAcc             0      0.00%     53.06% # Class of committed instruction
system.cpu.op_class_0::SimdFloatSqrt                0      0.00%     53.06% # Class of committed instruction
system.cpu.op_class_0::SimdReduceAdd                0      0.00%     53.06% # Class of committed instruction
system.cpu.op_class_0::SimdReduceAlu                0      0.00%     53.06% # Class of committed instruction
system.cpu.op_class_0::SimdReduceCmp                0      0.00%     53.06% # Class of committed instruction
system.cpu.op_class_0::SimdFloatReduceAdd            0      0.00%     53.06% # Class of committed instruction
system.cpu.op_class_0::SimdFloatReduceCmp            0      0.00%     53.06% # Class of committed instruction
system.cpu.op_class_0::SimdAes                      0      0.00%     53.06% # Class of committed instruction
system.cpu.op_class_0::SimdAesMix                   0      0.00%     53.06% # Class of committed instruction
system.cpu.op_class_0::SimdSha1Hash                 0      0.00%     53.06% # Class of committed instruction
system.cpu.op_class_0::SimdSha1Hash2                0      0.00%     53.06% # Class of committed instruction
system.cpu.op_class_0::SimdSha256Hash               0      0.00%     53.06% # Class of committed instruction
system.cpu.op_class_0::SimdSha256Hash2              0      0.00%     53.06% # Class of committed instruction
system.cpu.op_class_0::SimdShaSigma2                0      0.00%     53.06% # Class of committed instruction
system.cpu.op_class_0::SimdShaSigma3                0      0.00%     53.06% # Class of committed instruction
system.cpu.op_class_0::SimdPredAlu                  0      0.00%     53.06% # Class of committed instruction
system.cpu.op_class_0::MemRead                2082677      1.13%     54.20% # Class of committed instruction
system.cpu.op_class_0::MemWrite              84380898     45.80%    100.00% # Class of committed instruction
system.cpu.op_class_0::FloatMemRead                 0      0.00%    100.00% # Class of committed instruction
system.cpu.op_class_0::FloatMemWrite                0      0.00%    100.00% # Class of committed instruction
system.cpu.op_class_0::IprAccess                    0      0.00%    100.00% # Class of committed instruction
system.cpu.op_class_0::InstPrefetch                 0      0.00%    100.00% # Class of committed instruction
system.cpu.op_class_0::total                184218798                       # Class of committed instruction
system.cpu.tickCycles                       219053930                       # Number of cycles that the object actually ticked
system.cpu.workload.numSyscalls                    18                       # Number of system calls
system.membus.snoop_filter.hit_multi_requests            0                       # Number of requests hitting in the snoop filter with multiple (>1) holders of the requested data.
system.membus.snoop_filter.hit_multi_snoops            0                       # Number of snoops hitting in the snoop filter with multiple (>1) holders of the requested data.
system.membus.snoop_filter.hit_single_requests      2599025                       # Number of requests hitting in the snoop filter with a single holder of the requested data.
system.membus.snoop_filter.hit_single_snoops            0                       # Number of snoops hitting in the snoop filter with a single holder of the requested data.
system.membus.snoop_filter.tot_requests       5231201                       # Total number of requests made to the snoop filter.
system.membus.snoop_filter.tot_snoops               0                       # Total number of snoops made to the snoop filter.
system.tol2bus.snoop_filter.hit_multi_requests           61                       # Number of requests hitting in the snoop filter with multiple (>1) holders of the requested data.
system.tol2bus.snoop_filter.hit_multi_snoops            0                       # Number of snoops hitting in the snoop filter with multiple (>1) holders of the requested data.
system.tol2bus.snoop_filter.hit_single_requests      2631685                       # Number of requests hitting in the snoop filter with a single holder of the requested data.
system.tol2bus.snoop_filter.hit_single_snoops          411                       # Number of snoops hitting in the snoop filter with a single holder of the requested data.
system.tol2bus.snoop_filter.tot_requests      5264279                       # Total number of requests made to the snoop filter.
system.tol2bus.snoop_filter.tot_snoops            411                       # Total number of snoops made to the snoop filter.
system.clk_domain.clock                          1000                       # Clock period in ticks
system.cpu.branchPred.lookups                10658285                       # Number of BP lookups
system.cpu.branchPred.condPredicted          10650018                       # Number of conditional branches predicted
system.cpu.branchPred.condIncorrect              1442                       # Number of conditional branches incorrect
system.cpu.branchPred.BTBLookups             10650235                       # Number of BTB lookups
system.cpu.branchPred.BTBHits                10648842                       # Number of BTB hits
system.cpu.branchPred.BTBHitPct             99.986920                       # BTB Hit Percentage
system.cpu.branchPred.RASUsed                    2722                       # Number of times the RAS was used to get a target.
system.cpu.branchPred.RASIncorrect                  1                       # Number of incorrect RAS predictions.
system.cpu.branchPred.indirectLookups             199                       # Number of indirect predictor lookups.
system.cpu.branchPred.indirectHits                 24                       # Number of indirect target hits.
system.cpu.branchPred.indirectMisses              175                       # Number of indirect misses.
system.cpu.branchPred.indirectMispredicted          103                       # Number of mispredicted indirect branches.
system.cpu.dcache.demand_hits::.cpu.data     81118337                       # number of demand (read+write) hits
system.cpu.dcache.demand_hits::total         81118337                       # number of demand (read+write) hits
system.cpu.dcache.overall_hits::.cpu.data     81118381                       # number of overall hits
system.cpu.dcache.overall_hits::total        81118381                       # number of overall hits
system.cpu.dcache.demand_misses::.cpu.data      5262364                       # number of demand (read+write) misses
system.cpu.dcache.demand_misses::total        5262364                       # number of demand (read+write) misses
system.cpu.dcache.overall_misses::.cpu.data      5262391                       # number of overall misses
system.cpu.dcache.overall_misses::total       5262391                       # number of overall misses
system.cpu.dcache.demand_miss_latency::.cpu.data 822342016000                       # number of demand (read+write) miss cycles
system.cpu.dcache.demand_miss_latency::total 822342016000                       # number of demand (read+write) miss cycles
system.cpu.dcache.overall_miss_latency::.cpu.data 822342016000                       # number of overall miss cycles
system.cpu.dcache.overall_miss_latency::total 822342016000                       # number of overall miss cycles
system.cpu.dcache.demand_accesses::.cpu.data     86380701                       # number of demand (read+write) accesses
system.cpu.dcache.demand_accesses::total     86380701                       # number of demand (read+write) accesses
system.cpu.dcache.overall_accesses::.cpu.data     86380772                       # number of overall (read+write) accesses
system.cpu.dcache.overall_accesses::total     86380772                       # number of overall (read+write) accesses
system.cpu.dcache.demand_miss_rate::.cpu.data     0.060921                       # miss rate for demand accesses
system.cpu.dcache.demand_miss_rate::total     0.060921                       # miss rate for demand accesses
system.cpu.dcache.overall_miss_rate::.cpu.data     0.060921                       # miss rate for overall accesses
system.cpu.dcache.overall_miss_rate::total     0.060921                       # miss rate for overall accesses
system.cpu.dcache.demand_avg_miss_latency::.cpu.data 156268.554589                       # average overall miss latency
system.cpu.dcache.demand_avg_miss_latency::total 156268.554589                       # average overall miss latency
system.cpu.dcache.overall_avg_miss_latency::.cpu.data 156267.752814                       # average overall miss latency
system.cpu.dcache.overall_avg_miss_latency::total 156267.752814                       # average overall miss latency
system.cpu.dcache.blocked_cycles::no_mshrs            0                       # number of cycles access was blocked
system.cpu.dcache.blocked_cycles::no_targets            0                       # number of cycles access was blocked
system.cpu.dcache.blocked::no_mshrs                 0                       # number of cycles access was blocked
system.cpu.dcache.blocked::no_targets               0                       # number of cycles access was blocked
system.cpu.dcache.avg_blocked_cycles::no_mshrs          nan                       # average number of cycles each access was blocked
system.cpu.dcache.avg_blocked_cycles::no_targets          nan                       # average number of cycles each access was blocked
system.cpu.dcache.writebacks::.writebacks      2631300                       # number of writebacks
system.cpu.dcache.writebacks::total           2631300                       # number of writebacks
system.cpu.dcache.demand_mshr_hits::.cpu.data      2630187                       # number of demand (read+write) MSHR hits
system.cpu.dcache.demand_mshr_hits::total      2630187                       # number of demand (read+write) MSHR hits
system.cpu.dcache.overall_mshr_hits::.cpu.data      2630187                       # number of overall MSHR hits
system.cpu.dcache.overall_mshr_hits::total      2630187                       # number of overall MSHR hits
system.cpu.dcache.demand_mshr_misses::.cpu.data      2632177                       # number of demand (read+write) MSHR misses
system.cpu.dcache.demand_mshr_misses::total      2632177                       # number of demand (read+write) MSHR misses
system.cpu.dcache.overall_mshr_misses::.cpu.data      2632195                       # number of overall MSHR misses
system.cpu.dcache.overall_mshr_misses::total      2632195                       # number of overall MSHR misses
system.cpu.dcache.demand_mshr_miss_latency::.cpu.data 392894916000                       # number of demand (read+write) MSHR miss cycles
system.cpu.dcache.demand_mshr_miss_latency::total 392894916000                       # number of demand (read+write) MSHR miss cycles
system.cpu.dcache.overall_mshr_miss_latency::.cpu.data 392898292000                       # number of overall MSHR miss cycles
system.cpu.dcache.overall_mshr_miss_latency::total 392898292000                       # number of overall MSHR miss cycles
system.cpu.dcache.demand_mshr_miss_rate::.cpu.data     0.030472                       # mshr miss rate for demand accesses
system.cpu.dcache.demand_mshr_miss_rate::total     0.030472                       # mshr miss rate for demand accesses
system.cpu.dcache.overall_mshr_miss_rate::.cpu.data     0.030472                       # mshr miss rate for overall accesses
system.cpu.dcache.overall_mshr_miss_rate::total     0.030472                       # mshr miss rate for overall accesses
system.cpu.dcache.demand_avg_mshr_miss_latency::.cpu.data 149266.145856                       # average overall mshr miss latency
system.cpu.dcache.demand_avg_mshr_miss_latency::total 149266.145856                       # average overall mshr miss latency
system.cpu.dcache.overall_avg_mshr_miss_latency::.cpu.data 149266.407694                       # average overall mshr miss latency
system.cpu.dcache.overall_avg_mshr_miss_latency::total 149266.407694                       # average overall mshr miss latency
system.cpu.dcache.replacements                2631683                       # number of replacements
system.cpu.dcache.ReadReq_hits::.cpu.data      2043693                       # number of ReadReq hits
system.cpu.dcache.ReadReq_hits::total         2043693                       # number of ReadReq hits
system.cpu.dcache.ReadReq_misses::.cpu.data          419                       # number of ReadReq misses
system.cpu.dcache.ReadReq_misses::total           419                       # number of ReadReq misses
system.cpu.dcache.ReadReq_miss_latency::.cpu.data     45120000                       # number of ReadReq miss cycles
system.cpu.dcache.ReadReq_miss_latency::total     45120000                       # number of ReadReq miss cycles
system.cpu.dcache.ReadReq_accesses::.cpu.data      2044112                       # number of ReadReq accesses(hits+misses)
system.cpu.dcache.ReadReq_accesses::total      2044112                       # number of ReadReq accesses(hits+misses)
system.cpu.dcache.ReadReq_miss_rate::.cpu.data     0.000205                       # miss rate for ReadReq accesses
system.cpu.dcache.ReadReq_miss_rate::total     0.000205                       # miss rate for ReadReq accesses
system.cpu.dcache.ReadReq_avg_miss_latency::.cpu.data 107684.964200                       # average ReadReq miss latency
system.cpu.dcache.ReadReq_avg_miss_latency::total 107684.964200                       # average ReadReq miss latency
system.cpu.dcache.ReadReq_mshr_hits::.cpu.data           22                       # number of ReadReq MSHR hits
system.cpu.dcache.ReadReq_mshr_hits::total           22                       # number of ReadReq MSHR hits
system.cpu.dcache.ReadReq_mshr_misses::.cpu.data          397                       # number of ReadReq MSHR misses
system.cpu.dcache.ReadReq_mshr_misses::total          397                       # number of ReadReq MSHR misses
system.cpu.dcache.ReadReq_mshr_miss_latency::.cpu.data     40256000                       # number of ReadReq MSHR miss cycles
system.cpu.dcache.ReadReq_mshr_miss_latency::total     40256000                       # number of ReadReq MSHR miss cycles
system.cpu.dcache.ReadReq_mshr_miss_rate::.cpu.data     0.000194                       # mshr miss rate for ReadReq accesses
system.cpu.dcache.ReadReq_mshr_miss_rate::total     0.000194                       # mshr miss rate for ReadReq accesses
system.cpu.dcache.ReadReq_avg_mshr_miss_latency::.cpu.data 101400.503778                       # average ReadReq mshr miss latency
system.cpu.dcache.ReadReq_avg_mshr_miss_latency::total 101400.503778                       # average ReadReq mshr miss latency
system.cpu.dcache.WriteReq_hits::.cpu.data     79074644                       # number of WriteReq hits
system.cpu.dcache.WriteReq_hits::total       79074644                       # number of WriteReq hits
system.cpu.dcache.WriteReq_misses::.cpu.data      5261945                       # number of WriteReq misses
system.cpu.dcache.WriteReq_misses::total      5261945                       # number of WriteReq misses
system.cpu.dcache.WriteReq_miss_latency::.cpu.data 822296896000                       # number of WriteReq miss cycles
system.cpu.dcache.WriteReq_miss_latency::total 822296896000                       # number of WriteReq miss cycles
system.cpu.dcache.WriteReq_accesses::.cpu.data     84336589                       # number of WriteReq accesses(hits+misses)
system.cpu.dcache.WriteReq_accesses::total     84336589                       # number of WriteReq accesses(hits+misses)
system.cpu.dcache.WriteReq_miss_rate::.cpu.data     0.062392                       # miss rate for WriteReq accesses
system.cpu.dcache.WriteReq_miss_rate::total     0.062392                       # miss rate for WriteReq accesses
system.cpu.dcache.WriteReq_avg_miss_latency::.cpu.data 156272.423220                       # average WriteReq miss latency
system.cpu.dcache.WriteReq_avg_miss_latency::total 156272.423220                       # average WriteReq miss latency
system.cpu.dcache.WriteReq_mshr_hits::.cpu.data      2630165                       # number of WriteReq MSHR hits
system.cpu.dcache.WriteReq_mshr_hits::total      2630165                       # number of WriteReq MSHR hits
system.cpu.dcache.WriteReq_mshr_misses::.cpu.data      2631780                       # number of WriteReq MSHR misses
system.cpu.dcache.WriteReq_mshr_misses::total      2631780                       # number of WriteReq MSHR misses
system.cpu.dcache.WriteReq_mshr_miss_latency::.cpu.data 392854660000                       # number of WriteReq MSHR miss cycles
system.cpu.dcache.WriteReq_mshr_miss_latency::total 392854660000                       # number of WriteReq MSHR miss cycles
system.cpu.dcache.WriteReq_mshr_miss_rate::.cpu.data     0.031206                       # mshr miss rate for WriteReq accesses
system.cpu.dcache.WriteReq_mshr_miss_rate::total     0.031206                       # mshr miss rate for WriteReq accesses
system.cpu.dcache.WriteReq_avg_mshr_miss_latency::.cpu.data 149273.366315                       # average WriteReq mshr miss latency
system.cpu.dcache.WriteReq_avg_mshr_miss_latency::total 149273.366315                       # average WriteReq mshr miss latency
system.cpu.dcache.SoftPFReq_hits::.cpu.data           44                       # number of SoftPFReq hits
system.cpu.dcache.SoftPFReq_hits::total            44                       # number of SoftPFReq hits
system.cpu.dcache.SoftPFReq_misses::.cpu.data           27                       # number of SoftPFReq misses
system.cpu.dcache.SoftPFReq_misses::total           27                       # number of SoftPFReq misses
system.cpu.dcache.SoftPFReq_accesses::.cpu.data           71                       # number of SoftPFReq accesses(hits+misses)
system.cpu.dcache.SoftPFReq_accesses::total           71                       # number of SoftPFReq accesses(hits+misses)
system.cpu.dcache.SoftPFReq_miss_rate::.cpu.data     0.380282                       # miss rate for SoftPFReq accesses
system.cpu.dcache.SoftPFReq_miss_rate::total     0.380282                       # miss rate for SoftPFReq accesses
system.cpu.dcache.SoftPFReq_mshr_misses::.cpu.data           18                       # number of SoftPFReq MSHR misses
system.cpu.dcache.SoftPFReq_mshr_misses::total           18                       # number of SoftPFReq MSHR misses
system.cpu.dcache.SoftPFReq_mshr_miss_latency::.cpu.data      3376000                       # number of SoftPFReq MSHR miss cycles
system.cpu.dcache.SoftPFReq_mshr_miss_latency::total      3376000                       # number of SoftPFReq MSHR miss cycles
system.cpu.dcache.SoftPFReq_mshr_miss_rate::.cpu.data     0.253521                       # mshr miss rate for SoftPFReq accesses
system.cpu.dcache.SoftPFReq_mshr_miss_rate::total     0.253521                       # mshr miss rate for SoftPFReq accesses
system.cpu.dcache.SoftPFReq_avg_mshr_miss_latency::.cpu.data 187555.555556                       # average SoftPFReq mshr miss latency
system.cpu.dcache.SoftPFReq_avg_mshr_miss_latency::total 187555.555556                       # average SoftPFReq mshr miss latency
system.cpu.dcache.LoadLockedReq_hits::.cpu.data           34                       # number of LoadLockedReq hits
system.cpu.dcache.LoadLockedReq_hits::total           34                       # number of LoadLockedReq hits
system.cpu.dcache.LoadLockedReq_accesses::.cpu.data           34                       # number of LoadLockedReq accesses(hits+misses)
system.cpu.dcache.LoadLockedReq_accesses::total           34                       # number of LoadLockedReq accesses(hits+misses)
system.cpu.dcache.StoreCondReq_hits::.cpu.data           34                       # number of StoreCondReq hits
system.cpu.dcache.StoreCondReq_hits::total           34                       # number of StoreCondReq hits
system.cpu.dcache.StoreCondReq_accesses::.cpu.data           34                       # number of StoreCondReq accesses(hits+misses)
system.cpu.dcache.StoreCondReq_accesses::total           34                       # number of StoreCondReq accesses(hits+misses)
system.cpu.dcache.power_state.pwrStateResidencyTicks::UNDEFINED 773432294000                       # Cumulative time (in ticks) in various power states
system.cpu.dcache.tags.tagsinuse           511.707002                       # Cycle average of tags in use
system.cpu.dcache.tags.total_refs            83750644                       # Total number of references to valid blocks.
system.cpu.dcache.tags.sampled_refs           2632195                       # Sample count of references to valid blocks.
system.cpu.dcache.tags.avg_refs             31.817796                       # Average number of references to valid blocks.
system.cpu.dcache.tags.warmup_cycle            330000                       # Cycle when the warmup percentage was hit.
system.cpu.dcache.tags.occ_blocks::.cpu.data   511.707002                       # Average occupied blocks per requestor
system.cpu.dcache.tags.occ_percent::.cpu.data     0.999428                       # Average percentage of cache occupancy
system.cpu.dcache.tags.occ_percent::total     0.999428                       # Average percentage of cache occupancy
system.cpu.dcache.tags.occ_task_id_blocks::1024          512                       # Occupied blocks per task id
system.cpu.dcache.tags.age_task_id_blocks_1024::0           35                       # Occupied blocks per task id
system.cpu.dcache.tags.age_task_id_blocks_1024::1          312                       # Occupied blocks per task id
system.cpu.dcache.tags.age_task_id_blocks_1024::2          165                       # Occupied blocks per task id
system.cpu.dcache.tags.occ_task_id_percent::1024            1                       # Percentage of cache occupancy per task id
system.cpu.dcache.tags.tag_accesses         175393875                       # Number of tag accesses
system.cpu.dcache.tags.data_accesses        175393875                       # Number of data accesses
system.cpu.dcache.tags.power_state.pwrStateResidencyTicks::UNDEFINED 773432294000                       # Cumulative time (in ticks) in various power states
system.cpu.dtb.instHits                             0                       # ITB inst hits
system.cpu.dtb.instMisses                           0                       # ITB inst misses
system.cpu.dtb.readHits                             0                       # DTB read hits
system.cpu.dtb.readMisses                           0                       # DTB read misses
system.cpu.dtb.writeHits                            0                       # DTB write hits
system.cpu.dtb.writeMisses                          0                       # DTB write misses
system.cpu.dtb.inserts                              0                       # Number of times an entry is inserted into the TLB
system.cpu.dtb.flushTlb                             0                       # Number of times complete TLB was flushed
system.cpu.dtb.flushTlbMva                          0                       # Number of times TLB was flushed by MVA
system.cpu.dtb.flushTlbMvaAsid                      0                       # Number of times TLB was flushed by MVA & ASID
system.cpu.dtb.flushTlbAsid                         0                       # Number of times TLB was flushed by ASID
system.cpu.dtb.flushedEntries                       0                       # Number of entries that have been flushed from TLB
system.cpu.dtb.alignFaults                          0                       # Number of TLB faults due to alignment restrictions
system.cpu.dtb.prefetchFaults                       0                       # Number of TLB faults due to prefetch
system.cpu.dtb.domainFaults                         0                       # Number of TLB faults due to domain restrictions
system.cpu.dtb.permsFaults                          0                       # Number of TLB faults due to permissions restrictions
system.cpu.dtb.readAccesses                         0                       # DTB read accesses
system.cpu.dtb.writeAccesses                        0                       # DTB write accesses
system.cpu.dtb.instAccesses                         0                       # ITB inst accesses
system.cpu.dtb.hits                                 0                       # Total TLB (inst and data) hits
system.cpu.dtb.misses                               0                       # Total TLB (inst and data) misses
system.cpu.dtb.accesses                             0                       # Total TLB (inst and data) accesses
system.cpu.dtb.stage2_mmu.stage2_tlb.instHits            0                       # ITB inst hits
system.cpu.dtb.stage2_mmu.stage2_tlb.instMisses            0                       # ITB inst misses
system.cpu.dtb.stage2_mmu.stage2_tlb.readHits            0                       # DTB read hits
system.cpu.dtb.stage2_mmu.stage2_tlb.readMisses            0                       # DTB read misses
system.cpu.dtb.stage2_mmu.stage2_tlb.writeHits            0                       # DTB write hits
system.cpu.dtb.stage2_mmu.stage2_tlb.writeMisses            0                       # DTB write misses
system.cpu.dtb.stage2_mmu.stage2_tlb.inserts            0                       # Number of times an entry is inserted into the TLB
system.cpu.dtb.stage2_mmu.stage2_tlb.flushTlb            0                       # Number of times complete TLB was flushed
system.cpu.dtb.stage2_mmu.stage2_tlb.flushTlbMva            0                       # Number of times TLB was flushed by MVA
system.cpu.dtb.stage2_mmu.stage2_tlb.flushTlbMvaAsid            0                       # Number of times TLB was flushed by MVA & ASID
system.cpu.dtb.stage2_mmu.stage2_tlb.flushTlbAsid            0                       # Number of times TLB was flushed by ASID
system.cpu.dtb.stage2_mmu.stage2_tlb.flushedEntries            0                       # Number of entries that have been flushed from TLB
system.cpu.dtb.stage2_mmu.stage2_tlb.alignFaults            0                       # Number of TLB faults due to alignment restrictions
system.cpu.dtb.stage2_mmu.stage2_tlb.prefetchFaults            0                       # Number of TLB faults due to prefetch
system.cpu.dtb.stage2_mmu.stage2_tlb.domainFaults            0                       # Number of TLB faults due to domain restrictions
system.cpu.dtb.stage2_mmu.stage2_tlb.permsFaults            0                       # Number of TLB faults due to permissions restrictions
system.cpu.dtb.stage2_mmu.stage2_tlb.readAccesses            0                       # DTB read accesses
system.cpu.dtb.stage2_mmu.stage2_tlb.writeAccesses            0                       # DTB write accesses
system.cpu.dtb.stage2_mmu.stage2_tlb.instAccesses            0                       # ITB inst accesses
system.cpu.dtb.stage2_mmu.stage2_tlb.hits            0                       # Total TLB (inst and data) hits
system.cpu.dtb.stage2_mmu.stage2_tlb.misses            0                       # Total TLB (inst and data) misses
system.cpu.dtb.stage2_mmu.stage2_tlb.accesses            0                       # Total TLB (inst and data) accesses
system.cpu.dtb.stage2_mmu.stage2_tlb.walker.walks            0                       # Table walker walks requested
system.cpu.dtb.stage2_mmu.stage2_tlb.walker.requestOrigin_Requested::Data            0                       # Table walker requests started/completed, data/inst
system.cpu.dtb.stage2_mmu.stage2_tlb.walker.requestOrigin_Requested::Inst            0                       # Table walker requests started/completed, data/inst
system.cpu.dtb.stage2_mmu.stage2_tlb.walker.requestOrigin_Requested::total            0                       # Table walker requests started/completed, data/inst
system.cpu.dtb.stage2_mmu.stage2_tlb.walker.requestOrigin_Completed::Data            0                       # Table walker requests started/completed, data/inst
system.cpu.dtb.stage2_mmu.stage2_tlb.walker.requestOrigin_Completed::Inst            0                       # Table walker requests started/completed, data/inst
system.cpu.dtb.stage2_mmu.stage2_tlb.walker.requestOrigin_Completed::total            0                       # Table walker requests started/completed, data/inst
system.cpu.dtb.stage2_mmu.stage2_tlb.walker.requestOrigin::total            0                       # Table walker requests started/completed, data/inst
system.cpu.dtb.stage2_mmu.stage2_tlb.walker.power_state.pwrStateResidencyTicks::UNDEFINED 773432294000                       # Cumulative time (in ticks) in various power states
system.cpu.dtb.walker.walks                         0                       # Table walker walks requested
system.cpu.dtb.walker.requestOrigin_Requested::Data            0                       # Table walker requests started/completed, data/inst
system.cpu.dtb.walker.requestOrigin_Requested::Inst            0                       # Table walker requests started/completed, data/inst
system.cpu.dtb.walker.requestOrigin_Requested::total            0                       # Table walker requests started/completed, data/inst
system.cpu.dtb.walker.requestOrigin_Completed::Data            0                       # Table walker requests started/completed, data/inst
system.cpu.dtb.walker.requestOrigin_Completed::Inst            0                       # Table walker requests started/completed, data/inst
system.cpu.dtb.walker.requestOrigin_Completed::total            0                       # Table walker requests started/completed, data/inst
system.cpu.dtb.walker.requestOrigin::total            0                       # Table walker requests started/completed, data/inst
system.cpu.dtb.walker.power_state.pwrStateResidencyTicks::UNDEFINED 773432294000                       # Cumulative time (in ticks) in various power states
system.cpu.fetch2.intInstructions            45071089                       # Number of integer instructions successfully decoded
system.cpu.fetch2.fpInstructions                    0                       # Number of floating point instructions successfully decoded
system.cpu.fetch2.vecInstructions                   0                       # Number of SIMD instructions successfully decoded
system.cpu.fetch2.loadInstructions            2086512                       # Number of memory load instructions successfully decoded
system.cpu.fetch2.storeInstructions            169170                       # Number of memory store instructions successfully decoded
system.cpu.fetch2.amoInstructions                   0                       # Number of memory atomic instructions successfully decoded
system.cpu.icache.demand_hits::.cpu.inst     32043586                       # number of demand (read+write) hits
system.cpu.icache.demand_hits::total         32043586                       # number of demand (read+write) hits
system.cpu.icache.overall_hits::.cpu.inst     32043586                       # number of overall hits
system.cpu.icache.overall_hits::total        32043586                       # number of overall hits
system.cpu.icache.demand_misses::.cpu.inst          399                       # number of demand (read+write) misses
system.cpu.icache.demand_misses::total            399                       # number of demand (read+write) misses
system.cpu.icache.overall_misses::.cpu.inst          399                       # number of overall misses
system.cpu.icache.overall_misses::total           399                       # number of overall misses
system.cpu.icache.demand_miss_latency::.cpu.inst     61400000                       # number of demand (read+write) miss cycles
system.cpu.icache.demand_miss_latency::total     61400000                       # number of demand (read+write) miss cycles
system.cpu.icache.overall_miss_latency::.cpu.inst     61400000                       # number of overall miss cycles
system.cpu.icache.overall_miss_latency::total     61400000                       # number of overall miss cycles
system.cpu.icache.demand_accesses::.cpu.inst     32043985                       # number of demand (read+write) accesses
system.cpu.icache.demand_accesses::total     32043985                       # number of demand (read+write) accesses
system.cpu.icache.overall_accesses::.cpu.inst     32043985                       # number of overall (read+write) accesses
system.cpu.icache.overall_accesses::total     32043985                       # number of overall (read+write) accesses
system.cpu.icache.demand_miss_rate::.cpu.inst     0.000012                       # miss rate for demand accesses
system.cpu.icache.demand_miss_rate::total     0.000012                       # miss rate for demand accesses
system.cpu.icache.overall_miss_rate::.cpu.inst     0.000012                       # miss rate for overall accesses
system.cpu.icache.overall_miss_rate::total     0.000012                       # miss rate for overall accesses
system.cpu.icache.demand_avg_miss_latency::.cpu.inst 153884.711779                       # average overall miss latency
system.cpu.icache.demand_avg_miss_latency::total 153884.711779                       # average overall miss latency
system.cpu.icache.overall_avg_miss_latency::.cpu.inst 153884.711779                       # average overall miss latency
system.cpu.icache.overall_avg_miss_latency::total 153884.711779                       # average overall miss latency
system.cpu.icache.blocked_cycles::no_mshrs            0                       # number of cycles access was blocked
system.cpu.icache.blocked_cycles::no_targets            0                       # number of cycles access was blocked
system.cpu.icache.blocked::no_mshrs                 0                       # number of cycles access was blocked
system.cpu.icache.blocked::no_targets               0                       # number of cycles access was blocked
system.cpu.icache.avg_blocked_cycles::no_mshrs          nan                       # average number of cycles each access was blocked
system.cpu.icache.avg_blocked_cycles::no_targets          nan                       # average number of cycles each access was blocked
system.cpu.icache.writebacks::.writebacks            2                       # number of writebacks
system.cpu.icache.writebacks::total                 2                       # number of writebacks
system.cpu.icache.demand_mshr_misses::.cpu.inst          399                       # number of demand (read+write) MSHR misses
system.cpu.icache.demand_mshr_misses::total          399                       # number of demand (read+write) MSHR misses
system.cpu.icache.overall_mshr_misses::.cpu.inst          399                       # number of overall MSHR misses
system.cpu.icache.overall_mshr_misses::total          399                       # number of overall MSHR misses
system.cpu.icache.demand_mshr_miss_latency::.cpu.inst     59804000                       # number of demand (read+write) MSHR miss cycles
system.cpu.icache.demand_mshr_miss_latency::total     59804000                       # number of demand (read+write) MSHR miss cycles
system.cpu.icache.overall_mshr_miss_latency::.cpu.inst     59804000                       # number of overall MSHR miss cycles
system.cpu.icache.overall_mshr_miss_latency::total     59804000                       # number of overall MSHR miss cycles
system.cpu.icache.demand_mshr_miss_rate::.cpu.inst     0.000012                       # mshr miss rate for demand accesses
system.cpu.icache.demand_mshr_miss_rate::total     0.000012                       # mshr miss rate for demand accesses
system.cpu.icache.overall_mshr_miss_rate::.cpu.inst     0.000012                       # mshr miss rate for overall accesses
system.cpu.icache.overall_mshr_miss_rate::total     0.000012                       # mshr miss rate for overall accesses
system.cpu.icache.demand_avg_mshr_miss_latency::.cpu.inst 149884.711779                       # average overall mshr miss latency
system.cpu.icache.demand_avg_mshr_miss_latency::total 149884.711779                       # average overall mshr miss latency
system.cpu.icache.overall_avg_mshr_miss_latency::.cpu.inst 149884.711779                       # average overall mshr miss latency
system.cpu.icache.overall_avg_mshr_miss_latency::total 149884.711779                       # average overall mshr miss latency
system.cpu.icache.replacements                      2                       # number of replacements
system.cpu.icache.ReadReq_hits::.cpu.inst     32043586                       # number of ReadReq hits
system.cpu.icache.ReadReq_hits::total        32043586                       # number of ReadReq hits
system.cpu.icache.ReadReq_misses::.cpu.inst          399                       # number of ReadReq misses
system.cpu.icache.ReadReq_misses::total           399                       # number of ReadReq misses
system.cpu.icache.ReadReq_miss_latency::.cpu.inst     61400000                       # number of ReadReq miss cycles
system.cpu.icache.ReadReq_miss_latency::total     61400000                       # number of ReadReq miss cycles
system.cpu.icache.ReadReq_accesses::.cpu.inst     32043985                       # number of ReadReq accesses(hits+misses)
system.cpu.icache.ReadReq_accesses::total     32043985                       # number of ReadReq accesses(hits+misses)
system.cpu.icache.ReadReq_miss_rate::.cpu.inst     0.000012                       # miss rate for ReadReq accesses
system.cpu.icache.ReadReq_miss_rate::total     0.000012                       # miss rate for ReadReq accesses
system.cpu.icache.ReadReq_avg_miss_latency::.cpu.inst 153884.711779                       # average ReadReq miss latency
system.cpu.icache.ReadReq_avg_miss_latency::total 153884.711779                       # average ReadReq miss latency
system.cpu.icache.ReadReq_mshr_misses::.cpu.inst          399                       # number of ReadReq MSHR misses
system.cpu.icache.ReadReq_mshr_misses::total          399                       # number of ReadReq MSHR misses
system.cpu.icache.ReadReq_mshr_miss_latency::.cpu.inst     59804000                       # number of ReadReq MSHR miss cycles
system.cpu.icache.ReadReq_mshr_miss_latency::total     59804000                       # number of ReadReq MSHR miss cycles
system.cpu.icache.ReadReq_mshr_miss_rate::.cpu.inst     0.000012                       # mshr miss rate for ReadReq accesses
system.cpu.icache.ReadReq_mshr_miss_rate::total     0.000012                       # mshr miss rate for ReadReq accesses
system.cpu.icache.ReadReq_avg_mshr_miss_latency::.cpu.inst 149884.711779                       # average ReadReq mshr miss latency
system.cpu.icache.ReadReq_avg_mshr_miss_latency::total 149884.711779                       # average ReadReq mshr miss latency
system.cpu.icache.power_state.pwrStateResidencyTicks::UNDEFINED 773432294000                       # Cumulative time (in ticks) in various power states
system.cpu.icache.tags.tagsinuse           336.113449                       # Cycle average of tags in use
system.cpu.icache.tags.total_refs            32043985                       # Total number of references to valid blocks.
system.cpu.icache.tags.sampled_refs               399                       # Sample count of references to valid blocks.
system.cpu.icache.tags.avg_refs          80310.739348                       # Average number of references to valid blocks.
system.cpu.icache.tags.warmup_cycle            158000                       # Cycle when the warmup percentage was hit.
system.cpu.icache.tags.occ_blocks::.cpu.inst   336.113449                       # Average occupied blocks per requestor
system.cpu.icache.tags.occ_percent::.cpu.inst     0.328236                       # Average percentage of cache occupancy
system.cpu.icache.tags.occ_percent::total     0.328236                       # Average percentage of cache occupancy
system.cpu.icache.tags.occ_task_id_blocks::1024          397                       # Occupied blocks per task id
system.cpu.icache.tags.age_task_id_blocks_1024::4          397                       # Occupied blocks per task id
system.cpu.icache.tags.occ_task_id_percent::1024     0.387695                       # Percentage of cache occupancy per task id
system.cpu.icache.tags.tag_accesses          64088369                       # Number of tag accesses
system.cpu.icache.tags.data_accesses         64088369                       # Number of data accesses
system.cpu.icache.tags.power_state.pwrStateResidencyTicks::UNDEFINED 773432294000                       # Cumulative time (in ticks) in various power states
system.cpu.itb.instHits                             0                       # ITB inst hits
system.cpu.itb.instMisses                           0                       # ITB inst misses
system.cpu.itb.readHits                             0                       # DTB read hits
system.cpu.itb.readMisses                           0                       # DTB read misses
system.cpu.itb.writeHits                            0                       # DTB write hits
system.cpu.itb.writeMisses                          0                       # DTB write misses
system.cpu.itb.inserts                              0                       # Number of times an entry is inserted into the TLB
system.cpu.itb.flushTlb                             0                       # Number of times complete TLB was flushed
system.cpu.itb.flushTlbMva                          0                       # Number of times TLB was flushed by MVA
system.cpu.itb.flushTlbMvaAsid                      0                       # Number of times TLB was flushed by MVA & ASID
system.cpu.itb.flushTlbAsid                         0                       # Number of times TLB was flushed by ASID
system.cpu.itb.flushedEntries                       0                       # Number of entries that have been flushed from TLB
system.cpu.itb.alignFaults                          0                       # Number of TLB faults due to alignment restrictions
system.cpu.itb.prefetchFaults                       0                       # Number of TLB faults due to prefetch
system.cpu.itb.domainFaults                         0                       # Number of TLB faults due to domain restrictions
system.cpu.itb.permsFaults                          0                       # Number of TLB faults due to permissions restrictions
system.cpu.itb.readAccesses                         0                       # DTB read accesses
system.cpu.itb.writeAccesses                        0                       # DTB write accesses
system.cpu.itb.instAccesses                         0                       # ITB inst accesses
system.cpu.itb.hits                                 0                       # Total TLB (inst and data) hits
system.cpu.itb.misses                               0                       # Total TLB (inst and data) misses
system.cpu.itb.accesses                             0                       # Total TLB (inst and data) accesses
system.cpu.itb.stage2_mmu.stage2_tlb.instHits            0                       # ITB inst hits
system.cpu.itb.stage2_mmu.stage2_tlb.instMisses            0                       # ITB inst misses
system.cpu.itb.stage2_mmu.stage2_tlb.readHits            0                       # DTB read hits
system.cpu.itb.stage2_mmu.stage2_tlb.readMisses            0                       # DTB read misses
system.cpu.itb.stage2_mmu.stage2_tlb.writeHits            0                       # DTB write hits
system.cpu.itb.stage2_mmu.stage2_tlb.writeMisses            0                       # DTB write misses
system.cpu.itb.stage2_mmu.stage2_tlb.inserts            0                       # Number of times an entry is inserted into the TLB
system.cpu.itb.stage2_mmu.stage2_tlb.flushTlb            0                       # Number of times complete TLB was flushed
system.cpu.itb.stage2_mmu.stage2_tlb.flushTlbMva            0                       # Number of times TLB was flushed by MVA
system.cpu.itb.stage2_mmu.stage2_tlb.flushTlbMvaAsid            0                       # Number of times TLB was flushed by MVA & ASID
system.cpu.itb.stage2_mmu.stage2_tlb.flushTlbAsid            0                       # Number of times TLB was flushed by ASID
system.cpu.itb.stage2_mmu.stage2_tlb.flushedEntries            0                       # Number of entries that have been flushed from TLB
system.cpu.itb.stage2_mmu.stage2_tlb.alignFaults            0                       # Number of TLB faults due to alignment restrictions
system.cpu.itb.stage2_mmu.stage2_tlb.prefetchFaults            0                       # Number of TLB faults due to prefetch
system.cpu.itb.stage2_mmu.stage2_tlb.domainFaults            0                       # Number of TLB faults due to domain restrictions
system.cpu.itb.stage2_mmu.stage2_tlb.permsFaults            0                       # Number of TLB faults due to permissions restrictions
system.cpu.itb.stage2_mmu.stage2_tlb.readAccesses            0                       # DTB read accesses
system.cpu.itb.stage2_mmu.stage2_tlb.writeAccesses            0                       # DTB write accesses
system.cpu.itb.stage2_mmu.stage2_tlb.instAccesses            0                       # ITB inst accesses
system.cpu.itb.stage2_mmu.stage2_tlb.hits            0                       # Total TLB (inst and data) hits
system.cpu.itb.stage2_mmu.stage2_tlb.misses            0                       # Total TLB (inst and data) misses
system.cpu.itb.stage2_mmu.stage2_tlb.accesses            0                       # Total TLB (inst and data) accesses
system.cpu.itb.stage2_mmu.stage2_tlb.walker.walks            0                       # Table walker walks requested
system.cpu.itb.stage2_mmu.stage2_tlb.walker.requestOrigin_Requested::Data            0                       # Table walker requests started/completed, data/inst
system.cpu.itb.stage2_mmu.stage2_tlb.walker.requestOrigin_Requested::Inst            0                       # Table walker requests started/completed, data/inst
system.cpu.itb.stage2_mmu.stage2_tlb.walker.requestOrigin_Requested::total            0                       # Table walker requests started/completed, data/inst
system.cpu.itb.stage2_mmu.stage2_tlb.walker.requestOrigin_Completed::Data            0                       # Table walker requests started/completed, data/inst
system.cpu.itb.stage2_mmu.stage2_tlb.walker.requestOrigin_Completed::Inst            0                       # Table walker requests started/completed, data/inst
system.cpu.itb.stage2_mmu.stage2_tlb.walker.requestOrigin_Completed::total            0                       # Table walker requests started/completed, data/inst
system.cpu.itb.stage2_mmu.stage2_tlb.walker.requestOrigin::total            0                       # Table walker requests started/completed, data/inst
system.cpu.itb.stage2_mmu.stage2_tlb.walker.power_state.pwrStateResidencyTicks::UNDEFINED 773432294000                       # Cumulative time (in ticks) in various power states
system.cpu.itb.walker.walks                         0                       # Table walker walks requested
system.cpu.itb.walker.requestOrigin_Requested::Data            0                       # Table walker requests started/completed, data/inst
system.cpu.itb.walker.requestOrigin_Requested::Inst            0                       # Table walker requests started/completed, data/inst
system.cpu.itb.walker.requestOrigin_Requested::total            0                       # Table walker requests started/completed, data/inst
system.cpu.itb.walker.requestOrigin_Completed::Data            0                       # Table walker requests started/completed, data/inst
system.cpu.itb.walker.requestOrigin_Completed::Inst            0                       # Table walker requests started/completed, data/inst
system.cpu.itb.walker.requestOrigin_Completed::total            0                       # Table walker requests started/completed, data/inst
system.cpu.itb.walker.requestOrigin::total            0                       # Table walker requests started/completed, data/inst
system.cpu.itb.walker.power_state.pwrStateResidencyTicks::UNDEFINED 773432294000                       # Cumulative time (in ticks) in various power states
system.cpu.power_state.pwrStateResidencyTicks::ON 773432294000                       # Cumulative time (in ticks) in various power states
system.cpu.thread_0.numInsts                100000001                       # Number of Instructions committed
system.cpu.thread_0.numOps                  184218798                       # Number of Ops committed
system.cpu.thread_0.numMemRefs                      0                       # Number of Memory References
system.cpu_clk_domain.clock                      2000                       # Clock period in ticks
system.cpu_voltage_domain.voltage                   1                       # Voltage in Volts
system.l2.demand_hits::.cpu.inst                   16                       # number of demand (read+write) hits
system.l2.demand_hits::.cpu.data                  380                       # number of demand (read+write) hits
system.l2.demand_hits::total                      396                       # number of demand (read+write) hits
system.l2.overall_hits::.cpu.inst                  16                       # number of overall hits
system.l2.overall_hits::.cpu.data                 380                       # number of overall hits
system.l2.overall_hits::total                     396                       # number of overall hits
system.l2.demand_misses::.cpu.inst                383                       # number of demand (read+write) misses
system.l2.demand_misses::.cpu.data            2631815                       # number of demand (read+write) misses
system.l2.demand_misses::total                2632198                       # number of demand (read+write) misses
system.l2.overall_misses::.cpu.inst               383                       # number of overall misses
system.l2.overall_misses::.cpu.data           2631815                       # number of overall misses
system.l2.overall_misses::total               2632198                       # number of overall misses
system.l2.demand_miss_latency::.cpu.inst     56652000                       # number of demand (read+write) miss cycles
system.l2.demand_miss_latency::.cpu.data 377088906000                       # number of demand (read+write) miss cycles
system.l2.demand_miss_latency::total     377145558000                       # number of demand (read+write) miss cycles
system.l2.overall_miss_latency::.cpu.inst     56652000                       # number of overall miss cycles
system.l2.overall_miss_latency::.cpu.data 377088906000                       # number of overall miss cycles
system.l2.overall_miss_latency::total    377145558000                       # number of overall miss cycles
system.l2.demand_accesses::.cpu.inst              399                       # number of demand (read+write) accesses
system.l2.demand_accesses::.cpu.data          2632195                       # number of demand (read+write) accesses
system.l2.demand_accesses::total              2632594                       # number of demand (read+write) accesses
system.l2.overall_accesses::.cpu.inst             399                       # number of overall (read+write) accesses
system.l2.overall_accesses::.cpu.data         2632195                       # number of overall (read+write) accesses
system.l2.overall_accesses::total             2632594                       # number of overall (read+write) accesses
system.l2.demand_miss_rate::.cpu.inst        0.959900                       # miss rate for demand accesses
system.l2.demand_miss_rate::.cpu.data        0.999856                       # miss rate for demand accesses
system.l2.demand_miss_rate::total            0.999850                       # miss rate for demand accesses
system.l2.overall_miss_rate::.cpu.inst       0.959900                       # miss rate for overall accesses
system.l2.overall_miss_rate::.cpu.data       0.999856                       # miss rate for overall accesses
system.l2.overall_miss_rate::total           0.999850                       # miss rate for overall accesses
system.l2.demand_avg_miss_latency::.cpu.inst 147916.449086                       # average overall miss latency
system.l2.demand_avg_miss_latency::.cpu.data 143280.931980                       # average overall miss latency
system.l2.demand_avg_miss_latency::total 143281.606475                       # average overall miss latency
system.l2.overall_avg_miss_latency::.cpu.inst 147916.449086                       # average overall miss latency
system.l2.overall_avg_miss_latency::.cpu.data 143280.931980                       # average overall miss latency
system.l2.overall_avg_miss_latency::total 143281.606475                       # average overall miss latency
system.l2.blocked_cycles::no_mshrs                  0                       # number of cycles access was blocked
system.l2.blocked_cycles::no_targets                0                       # number of cycles access was blocked
system.l2.blocked::no_mshrs                         0                       # number of cycles access was blocked
system.l2.blocked::no_targets                       0                       # number of cycles access was blocked
system.l2.avg_blocked_cycles::no_mshrs            nan                       # average number of cycles each access was blocked
system.l2.avg_blocked_cycles::no_targets          nan                       # average number of cycles each access was blocked
system.l2.writebacks::.writebacks             2598860                       # number of writebacks
system.l2.writebacks::total                   2598860                       # number of writebacks
system.l2.demand_mshr_hits::.cpu.inst               1                       # number of demand (read+write) MSHR hits
system.l2.demand_mshr_hits::.cpu.data               7                       # number of demand (read+write) MSHR hits
system.l2.demand_mshr_hits::total                   8                       # number of demand (read+write) MSHR hits
system.l2.overall_mshr_hits::.cpu.inst              1                       # number of overall MSHR hits
system.l2.overall_mshr_hits::.cpu.data              7                       # number of overall MSHR hits
system.l2.overall_mshr_hits::total                  8                       # number of overall MSHR hits
system.l2.demand_mshr_misses::.cpu.inst           382                       # number of demand (read+write) MSHR misses
system.l2.demand_mshr_misses::.cpu.data       2631808                       # number of demand (read+write) MSHR misses
system.l2.demand_mshr_misses::total           2632190                       # number of demand (read+write) MSHR misses
system.l2.overall_mshr_misses::.cpu.inst          382                       # number of overall MSHR misses
system.l2.overall_mshr_misses::.cpu.data      2631808                       # number of overall MSHR misses
system.l2.overall_mshr_misses::total          2632190                       # number of overall MSHR misses
system.l2.demand_mshr_miss_latency::.cpu.inst     41228000                       # number of demand (read+write) MSHR miss cycles
system.l2.demand_mshr_miss_latency::.cpu.data 271771476000                       # number of demand (read+write) MSHR miss cycles
system.l2.demand_mshr_miss_latency::total 271812704000                       # number of demand (read+write) MSHR miss cycles
system.l2.overall_mshr_miss_latency::.cpu.inst     41228000                       # number of overall MSHR miss cycles
system.l2.overall_mshr_miss_latency::.cpu.data 271771476000                       # number of overall MSHR miss cycles
system.l2.overall_mshr_miss_latency::total 271812704000                       # number of overall MSHR miss cycles
system.l2.demand_mshr_miss_rate::.cpu.inst     0.957393                       # mshr miss rate for demand accesses
system.l2.demand_mshr_miss_rate::.cpu.data     0.999853                       # mshr miss rate for demand accesses
system.l2.demand_mshr_miss_rate::total       0.999847                       # mshr miss rate for demand accesses
system.l2.overall_mshr_miss_rate::.cpu.inst     0.957393                       # mshr miss rate for overall accesses
system.l2.overall_mshr_miss_rate::.cpu.data     0.999853                       # mshr miss rate for overall accesses
system.l2.overall_mshr_miss_rate::total      0.999847                       # mshr miss rate for overall accesses
system.l2.demand_avg_mshr_miss_latency::.cpu.inst 107926.701571                       # average overall mshr miss latency
system.l2.demand_avg_mshr_miss_latency::.cpu.data 103264.172766                       # average overall mshr miss latency
system.l2.demand_avg_mshr_miss_latency::total 103264.849422                       # average overall mshr miss latency
system.l2.overall_avg_mshr_miss_latency::.cpu.inst 107926.701571                       # average overall mshr miss latency
system.l2.overall_avg_mshr_miss_latency::.cpu.data 103264.172766                       # average overall mshr miss latency
system.l2.overall_avg_mshr_miss_latency::total 103264.849422                       # average overall mshr miss latency
system.l2.replacements                        2599422                       # number of replacements
system.l2.WritebackDirty_hits::.writebacks      2631300                       # number of WritebackDirty hits
system.l2.WritebackDirty_hits::total          2631300                       # number of WritebackDirty hits
system.l2.WritebackDirty_accesses::.writebacks      2631300                       # number of WritebackDirty accesses(hits+misses)
system.l2.WritebackDirty_accesses::total      2631300                       # number of WritebackDirty accesses(hits+misses)
system.l2.WritebackClean_hits::.writebacks            2                       # number of WritebackClean hits
system.l2.WritebackClean_hits::total                2                       # number of WritebackClean hits
system.l2.WritebackClean_accesses::.writebacks            2                       # number of WritebackClean accesses(hits+misses)
system.l2.WritebackClean_accesses::total            2                       # number of WritebackClean accesses(hits+misses)
system.l2.ReadExReq_hits::.cpu.data               174                       # number of ReadExReq hits
system.l2.ReadExReq_hits::total                   174                       # number of ReadExReq hits
system.l2.ReadExReq_misses::.cpu.data         2631606                       # number of ReadExReq misses
system.l2.ReadExReq_misses::total             2631606                       # number of ReadExReq misses
system.l2.ReadExReq_miss_latency::.cpu.data 377056660000                       # number of ReadExReq miss cycles
system.l2.ReadExReq_miss_latency::total  377056660000                       # number of ReadExReq miss cycles
system.l2.ReadExReq_accesses::.cpu.data       2631780                       # number of ReadExReq accesses(hits+misses)
system.l2.ReadExReq_accesses::total           2631780                       # number of ReadExReq accesses(hits+misses)
system.l2.ReadExReq_miss_rate::.cpu.data     0.999934                       # miss rate for ReadExReq accesses
system.l2.ReadExReq_miss_rate::total         0.999934                       # miss rate for ReadExReq accesses
system.l2.ReadExReq_avg_miss_latency::.cpu.data 143280.057881                       # average ReadExReq miss latency
system.l2.ReadExReq_avg_miss_latency::total 143280.057881                       # average ReadExReq miss latency
system.l2.ReadExReq_mshr_misses::.cpu.data      2631606                       # number of ReadExReq MSHR misses
system.l2.ReadExReq_mshr_misses::total        2631606                       # number of ReadExReq MSHR misses
system.l2.ReadExReq_mshr_miss_latency::.cpu.data 271748159000                       # number of ReadExReq MSHR miss cycles
system.l2.ReadExReq_mshr_miss_latency::total 271748159000                       # number of ReadExReq MSHR miss cycles
system.l2.ReadExReq_mshr_miss_rate::.cpu.data     0.999934                       # mshr miss rate for ReadExReq accesses
system.l2.ReadExReq_mshr_miss_rate::total     0.999934                       # mshr miss rate for ReadExReq accesses
system.l2.ReadExReq_avg_mshr_miss_latency::.cpu.data 103263.238874                       # average ReadExReq mshr miss latency
system.l2.ReadExReq_avg_mshr_miss_latency::total 103263.238874                       # average ReadExReq mshr miss latency
system.l2.ReadCleanReq_hits::.cpu.inst             16                       # number of ReadCleanReq hits
system.l2.ReadCleanReq_hits::total                 16                       # number of ReadCleanReq hits
system.l2.ReadCleanReq_misses::.cpu.inst          383                       # number of ReadCleanReq misses
system.l2.ReadCleanReq_misses::total              383                       # number of ReadCleanReq misses
system.l2.ReadCleanReq_miss_latency::.cpu.inst     56652000                       # number of ReadCleanReq miss cycles
system.l2.ReadCleanReq_miss_latency::total     56652000                       # number of ReadCleanReq miss cycles
system.l2.ReadCleanReq_accesses::.cpu.inst          399                       # number of ReadCleanReq accesses(hits+misses)
system.l2.ReadCleanReq_accesses::total            399                       # number of ReadCleanReq accesses(hits+misses)
system.l2.ReadCleanReq_miss_rate::.cpu.inst     0.959900                       # miss rate for ReadCleanReq accesses
system.l2.ReadCleanReq_miss_rate::total      0.959900                       # miss rate for ReadCleanReq accesses
system.l2.ReadCleanReq_avg_miss_latency::.cpu.inst 147916.449086                       # average ReadCleanReq miss latency
system.l2.ReadCleanReq_avg_miss_latency::total 147916.449086                       # average ReadCleanReq miss latency
system.l2.ReadCleanReq_mshr_hits::.cpu.inst            1                       # number of ReadCleanReq MSHR hits
system.l2.ReadCleanReq_mshr_hits::total             1                       # number of ReadCleanReq MSHR hits
system.l2.ReadCleanReq_mshr_misses::.cpu.inst          382                       # number of ReadCleanReq MSHR misses
system.l2.ReadCleanReq_mshr_misses::total          382                       # number of ReadCleanReq MSHR misses
system.l2.ReadCleanReq_mshr_miss_latency::.cpu.inst     41228000                       # number of ReadCleanReq MSHR miss cycles
system.l2.ReadCleanReq_mshr_miss_latency::total     41228000                       # number of ReadCleanReq MSHR miss cycles
system.l2.ReadCleanReq_mshr_miss_rate::.cpu.inst     0.957393                       # mshr miss rate for ReadCleanReq accesses
system.l2.ReadCleanReq_mshr_miss_rate::total     0.957393                       # mshr miss rate for ReadCleanReq accesses
system.l2.ReadCleanReq_avg_mshr_miss_latency::.cpu.inst 107926.701571                       # average ReadCleanReq mshr miss latency
system.l2.ReadCleanReq_avg_mshr_miss_latency::total 107926.701571                       # average ReadCleanReq mshr miss latency
system.l2.ReadSharedReq_hits::.cpu.data           206                       # number of ReadSharedReq hits
system.l2.ReadSharedReq_hits::total               206                       # number of ReadSharedReq hits
system.l2.ReadSharedReq_misses::.cpu.data          209                       # number of ReadSharedReq misses
system.l2.ReadSharedReq_misses::total             209                       # number of ReadSharedReq misses
system.l2.ReadSharedReq_miss_latency::.cpu.data     32246000                       # number of ReadSharedReq miss cycles
system.l2.ReadSharedReq_miss_latency::total     32246000                       # number of ReadSharedReq miss cycles
system.l2.ReadSharedReq_accesses::.cpu.data          415                       # number of ReadSharedReq accesses(hits+misses)
system.l2.ReadSharedReq_accesses::total           415                       # number of ReadSharedReq accesses(hits+misses)
system.l2.ReadSharedReq_miss_rate::.cpu.data     0.503614                       # miss rate for ReadSharedReq accesses
system.l2.ReadSharedReq_miss_rate::total     0.503614                       # miss rate for ReadSharedReq accesses
system.l2.ReadSharedReq_avg_miss_latency::.cpu.data 154287.081340                       # average ReadSharedReq miss latency
system.l2.ReadSharedReq_avg_miss_latency::total 154287.081340                       # average ReadSharedReq miss latency
system.l2.ReadSharedReq_mshr_hits::.cpu.data            7                       # number of ReadSharedReq MSHR hits
system.l2.ReadSharedReq_mshr_hits::total            7                       # number of ReadSharedReq MSHR hits
system.l2.ReadSharedReq_mshr_misses::.cpu.data          202                       # number of ReadSharedReq MSHR misses
system.l2.ReadSharedReq_mshr_misses::total          202                       # number of ReadSharedReq MSHR misses
system.l2.ReadSharedReq_mshr_miss_latency::.cpu.data     23317000                       # number of ReadSharedReq MSHR miss cycles
system.l2.ReadSharedReq_mshr_miss_latency::total     23317000                       # number of ReadSharedReq MSHR miss cycles
system.l2.ReadSharedReq_mshr_miss_rate::.cpu.data     0.486747                       # mshr miss rate for ReadSharedReq accesses
system.l2.ReadSharedReq_mshr_miss_rate::total     0.486747                       # mshr miss rate for ReadSharedReq accesses
system.l2.ReadSharedReq_avg_mshr_miss_latency::.cpu.data 115430.693069                       # average ReadSharedReq mshr miss latency
system.l2.ReadSharedReq_avg_mshr_miss_latency::total 115430.693069                       # average ReadSharedReq mshr miss latency
system.l2.power_state.pwrStateResidencyTicks::UNDEFINED 773432294000                       # Cumulative time (in ticks) in various power states
system.l2.tags.tagsinuse                 32110.529883                       # Cycle average of tags in use
system.l2.tags.total_refs                     5264210                       # Total number of references to valid blocks.
system.l2.tags.sampled_refs                   2632190                       # Sample count of references to valid blocks.
system.l2.tags.avg_refs                      1.999935                       # Average number of references to valid blocks.
system.l2.tags.warmup_cycle                    116000                       # Cycle when the warmup percentage was hit.
system.l2.tags.occ_blocks::.cpu.inst         7.394484                       # Average occupied blocks per requestor
system.l2.tags.occ_blocks::.cpu.data     32103.135399                       # Average occupied blocks per requestor
system.l2.tags.occ_percent::.cpu.inst        0.000226                       # Average percentage of cache occupancy
system.l2.tags.occ_percent::.cpu.data        0.979710                       # Average percentage of cache occupancy
system.l2.tags.occ_percent::total            0.979936                       # Average percentage of cache occupancy
system.l2.tags.occ_task_id_blocks::1024         32768                       # Occupied blocks per task id
system.l2.tags.age_task_id_blocks_1024::0           35                       # Occupied blocks per task id
system.l2.tags.age_task_id_blocks_1024::1          312                       # Occupied blocks per task id
system.l2.tags.age_task_id_blocks_1024::2         3121                       # Occupied blocks per task id
system.l2.tags.age_task_id_blocks_1024::3        29300                       # Occupied blocks per task id
system.l2.tags.occ_task_id_percent::1024            1                       # Percentage of cache occupancy per task id
system.l2.tags.tag_accesses                  23689062                       # Number of tag accesses
system.l2.tags.data_accesses                 23689062                       # Number of data accesses
system.l2.tags.power_state.pwrStateResidencyTicks::UNDEFINED 773432294000                       # Cumulative time (in ticks) in various power states
system.mem_ctrls.avgPriority_.writebacks::samples   5197720.00                       # Average QoS priority value for accepted requests
system.mem_ctrls.avgPriority_.cpu.inst::samples       764.00                       # Average QoS priority value for accepted requests
system.mem_ctrls.avgPriority_.cpu.data::samples   5263616.00                       # Average QoS priority value for accepted requests
system.mem_ctrls.priorityMinLatency      0.000000018750                       # per QoS priority minimum request to response latency (s)
system.mem_ctrls.priorityMaxLatency      0.000636060500                       # per QoS priority maximum request to response latency (s)
system.mem_ctrls.numReadWriteTurnArounds       288761                       # Number of turnarounds from READ to WRITE
system.mem_ctrls.numWriteReadTurnArounds       288761                       # Number of turnarounds from WRITE to READ
system.mem_ctrls.numStayReadState            10694004                       # Number of times bus staying in READ state
system.mem_ctrls.numStayWriteState            4908964                       # Number of times bus staying in WRITE state
system.mem_ctrls.readReqs                     2632190                       # Number of read requests accepted
system.mem_ctrls.writeReqs                    2598860                       # Number of write requests accepted
system.mem_ctrls.readBursts                   5264380                       # Number of controller read bursts, including those serviced by the write queue
system.mem_ctrls.writeBursts                  5197720                       # Number of controller write bursts, including those merged in the write queue
system.mem_ctrls.servicedByWrQ                      0                       # Number of controller read bursts serviced by the write queue
system.mem_ctrls.mergedWrBursts                     0                       # Number of controller write bursts merged with an existing one
system.mem_ctrls.neitherReadNorWriteReqs            0                       # Number of requests that are neither read nor write
system.mem_ctrls.avgRdQLen                       2.00                       # Average read queue length when enqueuing
system.mem_ctrls.avgWrQLen                      24.47                       # Average write queue length when enqueuing
system.mem_ctrls.numRdRetry                         0                       # Number of times read queue was full causing retry
system.mem_ctrls.numWrRetry                         0                       # Number of times write queue was full causing retry
system.mem_ctrls.readPktSize::0                     0                       # Read request sizes (log2)
system.mem_ctrls.readPktSize::1                     0                       # Read request sizes (log2)
system.mem_ctrls.readPktSize::2                     0                       # Read request sizes (log2)
system.mem_ctrls.readPktSize::3                     0                       # Read request sizes (log2)
system.mem_ctrls.readPktSize::4                     0                       # Read request sizes (log2)
system.mem_ctrls.readPktSize::5                     0                       # Read request sizes (log2)
system.mem_ctrls.readPktSize::6               5264380                       # Read request sizes (log2)
system.mem_ctrls.readPktSize::7                     0                       # Read request sizes (log2)
system.mem_ctrls.writePktSize::0                    0                       # Write request sizes (log2)
system.mem_ctrls.writePktSize::1                    0                       # Write request sizes (log2)
system.mem_ctrls.writePktSize::2                    0                       # Write request sizes (log2)
system.mem_ctrls.writePktSize::3                    0                       # Write request sizes (log2)
system.mem_ctrls.writePktSize::4                    0                       # Write request sizes (log2)
system.mem_ctrls.writePktSize::5                    0                       # Write request sizes (log2)
system.mem_ctrls.writePktSize::6              5197720                       # Write request sizes (log2)
system.mem_ctrls.writePktSize::7                    0                       # Write request sizes (log2)
system.mem_ctrls.rdQLenPdf::0                 2632079                       # What read queue length does an incoming req see
system.mem_ctrls.rdQLenPdf::1                 2632088                       # What read queue length does an incoming req see
system.mem_ctrls.rdQLenPdf::2                     105                       # What read queue length does an incoming req see
system.mem_ctrls.rdQLenPdf::3                      97                       # What read queue length does an incoming req see
system.mem_ctrls.rdQLenPdf::4                       6                       # What read queue length does an incoming req see
system.mem_ctrls.rdQLenPdf::5                       5                       # What read queue length does an incoming req see
system.mem_ctrls.rdQLenPdf::6                       0                       # What read queue length does an incoming req see
system.mem_ctrls.rdQLenPdf::7                       0                       # What read queue length does an incoming req see
system.mem_ctrls.rdQLenPdf::8                       0                       # What read queue length does an incoming req see
system.mem_ctrls.rdQLenPdf::9                       0                       # What read queue length does an incoming req see
[...]
system.mem_ctrls.dram.bw_write::.writebacks    430101099                       # Write bandwidth from this memory (bytes/s)
system.mem_ctrls.dram.bw_write::total       430101099                       # Write bandwidth from this memory (bytes/s)
system.mem_ctrls.dram.bw_total::.writebacks    430101099                       # Total bandwidth to/from this memory (bytes/s)
system.mem_ctrls.dram.bw_total::.cpu.inst        63219                       # Total bandwidth to/from this memory (bytes/s)
system.mem_ctrls.dram.bw_total::.cpu.data    435553864                       # Total bandwidth to/from this memory (bytes/s)
system.mem_ctrls.dram.bw_total::total       865718183                       # Total bandwidth to/from this memory (bytes/s)
system.mem_ctrls.dram.readBursts              5264380                       # Number of DRAM read bursts
system.mem_ctrls.dram.writeBursts             5197697                       # Number of DRAM write bursts
system.mem_ctrls.dram.perBankRdBursts::0       329078                       # Per bank write bursts
system.mem_ctrls.dram.perBankRdBursts::1       329142                       # Per bank write bursts
system.mem_ctrls.dram.perBankRdBursts::2       329162                       # Per bank write bursts
system.mem_ctrls.dram.perBankRdBursts::3       329040                       # Per bank write bursts
system.mem_ctrls.dram.perBankRdBursts::4       329036                       # Per bank write bursts
system.mem_ctrls.dram.perBankRdBursts::5       329094                       # Per bank write bursts
system.mem_ctrls.dram.perBankRdBursts::6       329110                       # Per bank write bursts
system.mem_ctrls.dram.perBankRdBursts::7       328956                       # Per bank write bursts
system.mem_ctrls.dram.perBankRdBursts::8       328912                       # Per bank write bursts
system.mem_ctrls.dram.perBankRdBursts::9       328886                       # Per bank write bursts
system.mem_ctrls.dram.perBankRdBursts::10       328926                       # Per bank write bursts
system.mem_ctrls.dram.perBankRdBursts::11       328994                       # Per bank write bursts
system.mem_ctrls.dram.perBankRdBursts::12       329056                       # Per bank write bursts
system.mem_ctrls.dram.perBankRdBursts::13       329054                       # Per bank write bursts
system.mem_ctrls.dram.perBankRdBursts::14       329104                       # Per bank write bursts
system.mem_ctrls.dram.perBankRdBursts::15       328830                       # Per bank write bursts
system.mem_ctrls.dram.perBankWrBursts::0       324820                       # Per bank write bursts
system.mem_ctrls.dram.perBankWrBursts::1       324953                       # Per bank write bursts
system.mem_ctrls.dram.perBankWrBursts::2       324988                       # Per bank write bursts
system.mem_ctrls.dram.perBankWrBursts::3       324902                       # Per bank write bursts
system.mem_ctrls.dram.perBankWrBursts::4       324930                       # Per bank write bursts
system.mem_ctrls.dram.perBankWrBursts::5       324938                       # Per bank write bursts
system.mem_ctrls.dram.perBankWrBursts::6       324950                       # Per bank write bursts
system.mem_ctrls.dram.perBankWrBursts::7       324834                       # Per bank write bursts
system.mem_ctrls.dram.perBankWrBursts::8       324736                       # Per bank write bursts
system.mem_ctrls.dram.perBankWrBursts::9       324736                       # Per bank write bursts
system.mem_ctrls.dram.perBankWrBursts::10       324736                       # Per bank write bursts
system.mem_ctrls.dram.perBankWrBursts::11       324826                       # Per bank write bursts
system.mem_ctrls.dram.perBankWrBursts::12       324894                       # Per bank write bursts
system.mem_ctrls.dram.perBankWrBursts::13       324876                       # Per bank write bursts
system.mem_ctrls.dram.perBankWrBursts::14       324884                       # Per bank write bursts
system.mem_ctrls.dram.perBankWrBursts::15       324694                       # Per bank write bursts
system.mem_ctrls.dram.totQLat             50807476500                       # Total ticks spent queuing
system.mem_ctrls.dram.totBusLat           26321900000                       # Total ticks spent in databus transfers
system.mem_ctrls.dram.totMemAccLat       149514601500                       # Total ticks spent from burst creation until serviced by the DRAM
system.mem_ctrls.dram.avgQLat                 9651.18                       # Average queueing delay per DRAM burst
system.mem_ctrls.dram.avgBusLat               5000.00                       # Average bus latency per DRAM burst
system.mem_ctrls.dram.avgMemAccLat           28401.18                       # Average memory access latency per DRAM burst
system.mem_ctrls.dram.readRowHits             4668760                       # Number of row buffer hits during reads
system.mem_ctrls.dram.writeRowHits            4619348                       # Number of row buffer hits during writes
system.mem_ctrls.dram.readRowHitRate            88.69                       # Row buffer hit rate for reads
system.mem_ctrls.dram.writeRowHitRate           88.87                       # Row buffer hit rate for writes
system.mem_ctrls.dram.bytesPerActivate::samples      1173968                       # Bytes accessed per row activation
system.mem_ctrls.dram.bytesPerActivate::mean   570.350020                       # Bytes accessed per row activation
system.mem_ctrls.dram.bytesPerActivate::gmean   382.359453                       # Bytes accessed per row activation
system.mem_ctrls.dram.bytesPerActivate::stdev   416.580241                       # Bytes accessed per row activation
system.mem_ctrls.dram.bytesPerActivate::0-127        12929      1.10%      1.10% # Bytes accessed per row activation
system.mem_ctrls.dram.bytesPerActivate::128-255       460175     39.20%     40.30% # Bytes accessed per row activation
system.mem_ctrls.dram.bytesPerActivate::256-383        75440      6.43%     46.73% # Bytes accessed per row activation
system.mem_ctrls.dram.bytesPerActivate::384-511        26447      2.25%     48.98% # Bytes accessed per row activation
system.mem_ctrls.dram.bytesPerActivate::512-639        25105      2.14%     51.12% # Bytes accessed per row activation
system.mem_ctrls.dram.bytesPerActivate::640-767        24783      2.11%     53.23% # Bytes accessed per row activation
system.mem_ctrls.dram.bytesPerActivate::768-895        25482      2.17%     55.40% # Bytes accessed per row activation
system.mem_ctrls.dram.bytesPerActivate::896-1023        67382      5.74%     61.14% # Bytes accessed per row activation
system.mem_ctrls.dram.bytesPerActivate::1024-1151       456225     38.86%    100.00% # Bytes accessed per row activation
system.mem_ctrls.dram.bytesPerActivate::total      1173968                       # Bytes accessed per row activation
system.mem_ctrls.dram.bytesRead             336920320                       # Total number of bytes read from DRAM
system.mem_ctrls.dram.bytesWritten          332652608                       # Total number of bytes written to DRAM
system.mem_ctrls.dram.avgRdBW              435.617083                       # Average DRAM read bandwidth in MiBytes/s
system.mem_ctrls.dram.avgWrBW              430.099196                       # Average DRAM write bandwidth in MiBytes/s
system.mem_ctrls.dram.peakBW                 12800.00                       # Theoretical peak bandwidth in MiByte/s
system.mem_ctrls.dram.busUtil                    6.76                       # Data bus utilization in percentage
system.mem_ctrls.dram.busUtilRead                3.40                       # Data bus utilization in percentage for reads
system.mem_ctrls.dram.busUtilWrite               3.36                       # Data bus utilization in percentage for writes
system.mem_ctrls.dram.pageHitRate               88.78                       # Row buffer hit rate, read and write combined
system.mem_ctrls.dram.power_state.pwrStateResidencyTicks::UNDEFINED 773432294000                       # Cumulative time (in ticks) in various power states
system.mem_ctrls.dram.rank0.actEnergy      4191579840                       # Energy for activate commands per rank (pJ)
system.mem_ctrls.dram.rank0.preEnergy      2227873725                       # Energy for precharge commands per rank (pJ)
system.mem_ctrls.dram.rank0.readEnergy    18796892520                       # Energy for read commands per rank (pJ)
system.mem_ctrls.dram.rank0.writeEnergy   13568424300                       # Energy for write commands per rank (pJ)
system.mem_ctrls.dram.rank0.refreshEnergy 61054035120.000008                       # Energy for refresh commands per rank (pJ)
system.mem_ctrls.dram.rank0.actBackEnergy 175152099450                       # Energy for active background per rank (pJ)
system.mem_ctrls.dram.rank0.preBackEnergy 149501496480                       # Energy for precharge background per rank (pJ)
system.mem_ctrls.dram.rank0.actPowerDownEnergy            0                       # Energy for active power-down per rank (pJ)
system.mem_ctrls.dram.rank0.prePowerDownEnergy            0                       # Energy for precharge power-down per rank (pJ)
system.mem_ctrls.dram.rank0.selfRefreshEnergy            0                       # Energy for self refresh per rank (pJ)
system.mem_ctrls.dram.rank0.totalEnergy  424492401435                       # Total energy per rank (pJ)
system.mem_ctrls.dram.rank0.averagePower   548.842355                       # Core power per rank (mW)
system.mem_ctrls.dram.rank0.totalIdleTime            0                       # Total Idle time Per DRAM Rank
system.mem_ctrls.dram.rank0.pwrStateTime::IDLE 382484314750                       # Time in different power states
system.mem_ctrls.dram.rank0.pwrStateTime::REF  25826580000                       # Time in different power states
system.mem_ctrls.dram.rank0.pwrStateTime::SREF            0                       # Time in different power states
system.mem_ctrls.dram.rank0.pwrStateTime::PRE_PDN            0                       # Time in different power states
system.mem_ctrls.dram.rank0.pwrStateTime::ACT 365121399250                       # Time in different power states
system.mem_ctrls.dram.rank0.pwrStateTime::ACT_PDN            0                       # Time in different power states
system.mem_ctrls.dram.rank1.actEnergy      4190558820                       # Energy for activate commands per rank (pJ)
system.mem_ctrls.dram.rank1.preEnergy      2227334835                       # Energy for precharge commands per rank (pJ)
system.mem_ctrls.dram.rank1.readEnergy    18790780680                       # Energy for read commands per rank (pJ)
system.mem_ctrls.dram.rank1.writeEnergy   13563554040                       # Energy for write commands per rank (pJ)
system.mem_ctrls.dram.rank1.refreshEnergy 61054035120.000008                       # Energy for refresh commands per rank (pJ)
system.mem_ctrls.dram.rank1.actBackEnergy 175096461750                       # Energy for active background per rank (pJ)
system.mem_ctrls.dram.rank1.preBackEnergy 149548349280                       # Energy for precharge background per rank (pJ)
system.mem_ctrls.dram.rank1.actPowerDownEnergy            0                       # Energy for active power-down per rank (pJ)
system.mem_ctrls.dram.rank1.prePowerDownEnergy            0                       # Energy for precharge power-down per rank (pJ)
system.mem_ctrls.dram.rank1.selfRefreshEnergy            0                       # Energy for self refresh per rank (pJ)
system.mem_ctrls.dram.rank1.totalEnergy  424471074525                       # Total energy per rank (pJ)
system.mem_ctrls.dram.rank1.averagePower   548.814780                       # Core power per rank (mW)
system.mem_ctrls.dram.rank1.totalIdleTime            0                       # Total Idle time Per DRAM Rank
system.mem_ctrls.dram.rank1.pwrStateTime::IDLE 382607329500                       # Time in different power states
system.mem_ctrls.dram.rank1.pwrStateTime::REF  25826580000                       # Time in different power states
system.mem_ctrls.dram.rank1.pwrStateTime::SREF            0                       # Time in different power states
system.mem_ctrls.dram.rank1.pwrStateTime::PRE_PDN            0                       # Time in different power states
system.mem_ctrls.dram.rank1.pwrStateTime::ACT 364998384500                       # Time in different power states
system.mem_ctrls.dram.rank1.pwrStateTime::ACT_PDN            0                       # Time in different power states
system.mem_ctrls.power_state.pwrStateResidencyTicks::UNDEFINED 773432294000                       # Cumulative time (in ticks) in various power states
system.membus.trans_dist::ReadResp                584                       # Transaction distribution
system.membus.trans_dist::WritebackDirty      2598860                       # Transaction distribution
system.membus.trans_dist::CleanEvict              151                       # Transaction distribution
system.membus.trans_dist::ReadExReq           2631606                       # Transaction distribution
system.membus.trans_dist::ReadExResp          2631606                       # Transaction distribution
system.membus.trans_dist::ReadSharedReq           584                       # Transaction distribution
system.membus.pkt_count_system.l2.mem_side_port::system.mem_ctrls.port      7863391                       # Packet count per connected requestor and responder (bytes)
system.membus.pkt_count::total                7863391                       # Packet count per connected requestor and responder (bytes)
system.membus.pkt_size_system.l2.mem_side_port::system.mem_ctrls.port    669574400                       # Cumulative packet size per connected requestor and responder (bytes)
system.membus.pkt_size::total               669574400                       # Cumulative packet size per connected requestor and responder (bytes)
system.membus.snoops                                0                       # Total snoops (count)
system.membus.snoopTraffic                          0                       # Total snoop traffic (bytes)
system.membus.snoop_fanout::samples           2632190                       # Request fanout histogram
system.membus.snoop_fanout::mean                    0                       # Request fanout histogram
system.membus.snoop_fanout::stdev                   0                       # Request fanout histogram
system.membus.snoop_fanout::underflows              0      0.00%      0.00% # Request fanout histogram
system.membus.snoop_fanout::0                 2632190    100.00%    100.00% # Request fanout histogram
system.membus.snoop_fanout::1                       0      0.00%    100.00% # Request fanout histogram
system.membus.snoop_fanout::overflows               0      0.00%    100.00% # Request fanout histogram
system.membus.snoop_fanout::min_value               0                       # Request fanout histogram
system.membus.snoop_fanout::max_value               0                       # Request fanout histogram
system.membus.snoop_fanout::total             2632190                       # Request fanout histogram
system.membus.power_state.pwrStateResidencyTicks::UNDEFINED 773432294000                       # Cumulative time (in ticks) in various power states
system.membus.reqLayer0.occupancy         26022081000                       # Layer occupancy (ticks)
system.membus.reqLayer0.utilization               3.4                       # Layer utilization (%)
system.membus.respLayer1.occupancy        24446029750                       # Layer occupancy (ticks)
system.membus.respLayer1.utilization              3.2                       # Layer utilization (%)
system.tol2bus.trans_dist::ReadResp               814                       # Transaction distribution
system.tol2bus.trans_dist::WritebackDirty      5230160                       # Transaction distribution
system.tol2bus.trans_dist::WritebackClean            2                       # Transaction distribution
system.tol2bus.trans_dist::CleanEvict             945                       # Transaction distribution
system.tol2bus.trans_dist::ReadExReq          2631780                       # Transaction distribution
system.tol2bus.trans_dist::ReadExResp         2631780                       # Transaction distribution
system.tol2bus.trans_dist::ReadCleanReq           399                       # Transaction distribution
system.tol2bus.trans_dist::ReadSharedReq          415                       # Transaction distribution
system.tol2bus.pkt_count_system.cpu.icache.mem_side_port::system.l2.cpu_side_port          800                       # Packet count per connected requestor and responder (bytes)
system.tol2bus.pkt_count_system.cpu.dcache.mem_side_port::system.l2.cpu_side_port      7896073                       # Packet count per connected requestor and responder (bytes)
system.tol2bus.pkt_count::total               7896873                       # Packet count per connected requestor and responder (bytes)
system.tol2bus.pkt_size_system.cpu.icache.mem_side_port::system.l2.cpu_side_port        51328                       # Cumulative packet size per connected requestor and responder (bytes)
system.tol2bus.pkt_size_system.cpu.dcache.mem_side_port::system.l2.cpu_side_port    673727360                       # Cumulative packet size per connected requestor and responder (bytes)
system.tol2bus.pkt_size::total              673778688                       # Cumulative packet size per connected requestor and responder (bytes)
system.tol2bus.snoops                         2599422                       # Total snoops (count)
system.tol2bus.snoopTraffic                 332654080                       # Total snoop traffic (bytes)
system.tol2bus.snoop_fanout::samples          5232016                       # Request fanout histogram
system.tol2bus.snoop_fanout::mean            0.000090                       # Request fanout histogram
system.tol2bus.snoop_fanout::stdev           0.009498                       # Request fanout histogram
system.tol2bus.snoop_fanout::underflows             0      0.00%      0.00% # Request fanout histogram
system.tol2bus.snoop_fanout::0                5231544     99.99%     99.99% # Request fanout histogram
system.tol2bus.snoop_fanout::1                    472      0.01%    100.00% # Request fanout histogram
system.tol2bus.snoop_fanout::2                      0      0.00%    100.00% # Request fanout histogram
system.tol2bus.snoop_fanout::overflows              0      0.00%    100.00% # Request fanout histogram
system.tol2bus.snoop_fanout::min_value              0                       # Request fanout histogram
system.tol2bus.snoop_fanout::max_value              1                       # Request fanout histogram
system.tol2bus.snoop_fanout::total            5232016                       # Request fanout histogram
system.tol2bus.power_state.pwrStateResidencyTicks::UNDEFINED 773432294000                       # Cumulative time (in ticks) in various power states
system.tol2bus.reqLayer0.occupancy        31578974000                       # Layer occupancy (ticks)
system.tol2bus.reqLayer0.utilization              4.1                       # Layer utilization (%)
system.tol2bus.respLayer0.occupancy           3991999                       # Layer occupancy (ticks)
system.tol2bus.respLayer0.utilization             0.0                       # Layer utilization (%)
system.tol2bus.respLayer1.occupancy       26321963993                       # Layer occupancy (ticks)
system.tol2bus.respLayer1.utilization             3.4                       # Layer utilization (%)
system.voltage_domain.voltage                       1                       # Voltage in Volts

---------- End Simulation Statistics   ----------
