
---------- Begin Simulation Statistics ----------
final_tick                               277686944000                       # Number of ticks from beginning of simulation (restored from checkpoints and never reset)
host_inst_rate                                 247887                       # Simulator instruction rate (inst/s)
host_mem_usage                                 670560                       # Number of bytes of host memory used
host_op_rate                                   289598                       # Simulator op (including micro ops) rate (op/s)
host_seconds                                   403.41                       # Real time elapsed on the host
host_tick_rate                              688349215                       # Simulator tick rate (ticks/s)
sim_freq                                 1000000000000                       # Frequency of simulated ticks
sim_insts                                   100000000                       # Number of instructions simulated
sim_ops                                     116826589                       # Number of ops (including micro ops) simulated
sim_seconds                                  0.277687                       # Number of seconds simulated
sim_ticks                                277686944000                       # Number of ticks simulated
system.cpu.committedInsts                   100000000                       # Number of instructions committed
system.cpu.committedOps                     116826589                       # Number of ops (including micro ops) committed
system.cpu.cpi                               1.388435                       # CPI: cycles per instruction
system.cpu.discardedOps                        503727                       # Number of ops (including micro ops) which were discarded before commit
system.cpu.idleCycles                         4001172                       # Total number of cycles that the object has spent stopped
system.cpu.ipc                               0.720236                       # IPC: instructions per cycle
system.cpu.numCycles                        138843472                       # number of cpu cycles simulated
system.cpu.numFetchSuspends                         0                       # Number of times Execute suspended instruction fetching
system.cpu.numWorkItemsCompleted                    0                       # number of work items this cpu completed
system.cpu.numWorkItemsStarted                      0                       # number of work items this cpu started
system.cpu.op_class_0::No_OpClass                   0      0.00%      0.00% # Class of committed instruction
system.cpu.op_class_0::IntAlu                65231428     55.84%     55.84% # Class of committed instruction
system.cpu.op_class_0::IntMult                 602374      0.52%     56.35% # Class of committed instruction
system.cpu.op_class_0::IntDiv                       0      0.00%     56.35% # Class of committed instruction
system.cpu.op_class_0::FloatAdd                     0      0.00%     56.35% # Class of committed instruction
system.cpu.op_class_0::FloatCmp                     0      0.00%     56.35% # Class of committed instruction
system.cpu.op_class_0::FloatCvt                     0      0.00%     56.35% # Class of committed instruction
system.cpu.op_class_0::FloatMult                    0      0.00%     56.35% # Class of committed instruction
system.cpu.op_class_0::FloatMultAcc                 0      0.00%     56.35% # Class of committed instruction
system.cpu.op_class_0::FloatDiv                     0      0.00%     56.35% # Class of committed instruction
system.cpu.op_class_0::FloatMisc                    0      0.00%     56.35% # Class of committed instruction
system.cpu.op_class_0::FloatSqrt                    0      0.00%     56.35% # Class of committed instruction
system.cpu.op_class_0::SimdAdd                    380      0.00%     56.35% # Class of committed instruction
system.cpu.op_class_0::SimdAddAcc                   0      0.00%     56.35% # Class of committed instruction
system.cpu.op_class_0::SimdAlu                    470      0.00%     56.35% # Class of committed instruction
system.cpu.op_class_0::SimdCmp                    382      0.00%     56.35% # Class of committed instruction
system.cpu.op_class_0::SimdCvt                      0      0.00%     56.35% # Class of committed instruction
system.cpu.op_class_0::SimdMisc                    53      0.00%     56.35% # Class of committed instruction
system.cpu.op_class_0::SimdMult                     0      0.00%     56.35% # Class of committed instruction
system.cpu.op_class_0::SimdMultAcc                  0      0.00%     56.35% # Class of committed instruction
system.cpu.op_class_0::SimdShift                    0      0.00%     56.35% # Class of committed instruction
system.cpu.op_class_0::SimdShiftAcc                 0      0.00%     56.35% # Class of committed instruction
system.cpu.op_class_0::SimdDiv                      0      0.00%     56.35% # Class of committed instruction
system.cpu.op_class_0::SimdSqrt                     0      0.00%     56.35% # Class of committed instruction
system.cpu.op_class_0::SimdFloatAdd            783705      0.67%     57.02% # Class of committed instruction
system.cpu.op_class_0::SimdFloatAlu                 0      0.00%     57.02% # Class of committed instruction
system.cpu.op_class_0::SimdFloatCmp            769156      0.66%     57.68% # Class of committed instruction
system.cpu.op_class_0::SimdFloatCvt            311548      0.27%     57.95% # Class of committed instruction
system.cpu.op_class_0::SimdFloatDiv            152211      0.13%     58.08% # Class of committed instruction
system.cpu.op_class_0::SimdFloatMisc           950762      0.81%     58.89% # Class of committed instruction
system.cpu.op_class_0::SimdFloatMult            86008      0.07%     58.97% # Class of committed instruction
system.cpu.op_class_0::SimdFloatMultAcc         12802      0.01%     58.98% # Class of committed instruction
system.cpu.op_class_0::SimdFloatSqrt                0      0.00%     58.98% # Class of committed instruction
system.cpu.op_class_0::SimdReduceAdd                0      0.00%     58.98% # Class of committed instruction
system.cpu.op_class_0::SimdReduceAlu                0      0.00%     58.98% # Class of committed instruction
system.cpu.op_class_0::SimdReduceCmp                0      0.00%     58.98% # Class of committed instruction
system.cpu.op_class_0::SimdFloatReduceAdd            0      0.00%     58.98% # Class of committed instruction
system.cpu.op_class_0::SimdFloatReduceCmp            0      0.00%     58.98% # Class of committed instruction
system.cpu.op_class_0::SimdAes                      0      0.00%     58.98% # Class of committed instruction
system.cpu.op_class_0::SimdAesMix                   0      0.00%     58.98% # Class of committed instruction
system.cpu.op_class_0::SimdSha1Hash                 0      0.00%     58.98% # Class of committed instruction
system.cpu.op_class_0::SimdSha1Hash2                0      0.00%     58.98% # Class of committed instruction
system.cpu.op_class_0::SimdSha256Hash               0      0.00%     58.98% # Class of committed instruction
system.cpu.op_class_0::SimdSha256Hash2              0      0.00%     58.98% # Class of committed instruction
system.cpu.op_class_0::SimdShaSigma2                0      0.00%     58.98% # Class of committed instruction
system.cpu.op_class_0::SimdShaSigma3                0      0.00%     58.98% # Class of committed instruction
system.cpu.op_class_0::SimdPredAlu                  0      0.00%     58.98% # Class of committed instruction
system.cpu.op_class_0::MemRead               30319953     25.95%     84.93% # Class of committed instruction
system.cpu.op_class_0::MemWrite              17605357     15.07%    100.00% # Class of committed instruction
system.cpu.op_class_0::FloatMemRead                 0      0.00%    100.00% # Class of committed instruction
system.cpu.op_class_0::FloatMemWrite                0      0.00%    100.00% # Class of committed instruction
system.cpu.op_class_0::IprAccess                    0      0.00%    100.00% # Class of committed instruction
system.cpu.op_class_0::InstPrefetch                 0      0.00%    100.00% # Class of committed instruction
system.cpu.op_class_0::total                116826589                       # Class of committed instruction
system.cpu.tickCycles                       134842300                       # Number of cycles that the object actually ticked
system.cpu.workload.numSyscalls                    33                       # Number of system calls
system.membus.snoop_filter.hit_multi_requests            0                       # Number of requests hitting in the snoop filter with multiple (>1) holders of the requested data.
system.membus.snoop_filter.hit_multi_snoops            0                       # Number of snoops hitting in the snoop filter with multiple (>1) holders of the requested data.
system.membus.snoop_filter.hit_single_requests            0                       # Number of requests hitting in the snoop filter with a single holder of the requested data.
system.membus.snoop_filter.hit_single_snoops            0                       # Number of snoops hitting in the snoop filter with a single holder of the requested data.
system.membus.snoop_filter.tot_requests          3025                       # Total number of requests made to the snoop filter.
system.membus.snoop_filter.tot_snoops               0                       # Total number of snoops made to the snoop filter.
system.tol2bus.snoop_filter.hit_multi_requests         1653                       # Number of requests hitting in the snoop filter with multiple (>1) holders of the requested data.
system.tol2bus.snoop_filter.hit_multi_snoops            0                       # Number of snoops hitting in the snoop filter with multiple (>1) holders of the requested data.
system.tol2bus.snoop_filter.hit_single_requests        99240                       # Number of requests hitting in the snoop filter with a single holder of the requested data.
system.tol2bus.snoop_filter.hit_single_snoops            0                       # Number of snoops hitting in the snoop filter with a single holder of the requested data.
system.tol2bus.snoop_filter.tot_requests       199633                       # Total number of requests made to the snoop filter.
system.tol2bus.snoop_filter.tot_snoops              0                       # Total number of snoops made to the snoop filter.
system.clk_domain.clock                          1000                       # Clock period in ticks
system.cpu.branchPred.lookups                 6096137                       # Number of BP lookups
system.cpu.branchPred.condPredicted           5266442                       # Number of conditional branches predicted
system.cpu.branchPred.condIncorrect            188551                       # Number of conditional branches incorrect
system.cpu.branchPred.BTBLookups              3813453                       # Number of BTB lookups
system.cpu.branchPred.BTBHits                 3808351                       # Number of BTB hits
system.cpu.branchPred.BTBHitPct             99.866210                       # BTB Hit Percentage
system.cpu.branchPred.RASUsed                  248502                       # Number of times the RAS was used to get a target.
system.cpu.branchPred.RASIncorrect                  3                       # Number of incorrect RAS predictions.
system.cpu.branchPred.indirectLookups          154334                       # Number of indirect predictor lookups.
system.cpu.branchPred.indirectHits                233                       # Number of indirect target hits.
system.cpu.branchPred.indirectMisses           154101                       # Number of indirect misses.
system.cpu.branchPred.indirectMispredicted          201                       # Number of mispredicted indirect branches.
system.cpu.dcache.demand_hits::.cpu.data     47543546                       # number of demand (read+write) hits
system.cpu.dcache.demand_hits::total         47543546                       # number of demand (read+write) hits
system.cpu.dcache.overall_hits::.cpu.data     47568532                       # number of overall hits
system.cpu.dcache.overall_hits::total        47568532                       # number of overall hits
system.cpu.dcache.demand_misses::.cpu.data       163788                       # number of demand (read+write) misses
system.cpu.dcache.demand_misses::total         163788                       # number of demand (read+write) misses
system.cpu.dcache.overall_misses::.cpu.data       164023                       # number of overall misses
system.cpu.dcache.overall_misses::total        164023                       # number of overall misses
system.cpu.dcache.demand_miss_latency::.cpu.data   7668864000                       # number of demand (read+write) miss cycles
system.cpu.dcache.demand_miss_latency::total   7668864000                       # number of demand (read+write) miss cycles
system.cpu.dcache.overall_miss_latency::.cpu.data   7668864000                       # number of overall miss cycles
system.cpu.dcache.overall_miss_latency::total   7668864000                       # number of overall miss cycles
system.cpu.dcache.demand_accesses::.cpu.data     47707334                       # number of demand (read+write) accesses
system.cpu.dcache.demand_accesses::total     47707334                       # number of demand (read+write) accesses
system.cpu.dcache.overall_accesses::.cpu.data     47732555                       # number of overall (read+write) accesses
system.cpu.dcache.overall_accesses::total     47732555                       # number of overall (read+write) accesses
system.cpu.dcache.demand_miss_rate::.cpu.data     0.003433                       # miss rate for demand accesses
system.cpu.dcache.demand_miss_rate::total     0.003433                       # miss rate for demand accesses
system.cpu.dcache.overall_miss_rate::.cpu.data     0.003436                       # miss rate for overall accesses
system.cpu.dcache.overall_miss_rate::total     0.003436                       # miss rate for overall accesses
system.cpu.dcache.demand_avg_miss_latency::.cpu.data 46821.891714                       # average overall miss latency
system.cpu.dcache.demand_avg_miss_latency::total 46821.891714                       # average overall miss latency
system.cpu.dcache.overall_avg_miss_latency::.cpu.data 46754.808777                       # average overall miss latency
system.cpu.dcache.overall_avg_miss_latency::total 46754.808777                       # average overall miss latency
system.cpu.dcache.blocked_cycles::no_mshrs            0                       # number of cycles access was blocked
system.cpu.dcache.blocked_cycles::no_targets            0                       # number of cycles access was blocked
system.cpu.dcache.blocked::no_mshrs                 0                       # number of cycles access was blocked
system.cpu.dcache.blocked::no_targets               0                       # number of cycles access was blocked
system.cpu.dcache.avg_blocked_cycles::no_mshrs          nan                       # average number of cycles each access was blocked
system.cpu.dcache.avg_blocked_cycles::no_targets          nan                       # average number of cycles each access was blocked
system.cpu.dcache.writebacks::.writebacks        96205                       # number of writebacks
system.cpu.dcache.writebacks::total             96205                       # number of writebacks
system.cpu.dcache.demand_mshr_hits::.cpu.data        64376                       # number of demand (read+write) MSHR hits
system.cpu.dcache.demand_mshr_hits::total        64376                       # number of demand (read+write) MSHR hits
system.cpu.dcache.overall_mshr_hits::.cpu.data        64376                       # number of overall MSHR hits
system.cpu.dcache.overall_mshr_hits::total        64376                       # number of overall MSHR hits
system.cpu.dcache.demand_mshr_misses::.cpu.data        99412                       # number of demand (read+write) MSHR misses
system.cpu.dcache.demand_mshr_misses::total        99412                       # number of demand (read+write) MSHR misses
system.cpu.dcache.overall_mshr_misses::.cpu.data        99624                       # number of overall MSHR misses
system.cpu.dcache.overall_mshr_misses::total        99624                       # number of overall MSHR misses
system.cpu.dcache.demand_mshr_miss_latency::.cpu.data   5155514000                       # number of demand (read+write) MSHR miss cycles
system.cpu.dcache.demand_mshr_miss_latency::total   5155514000                       # number of demand (read+write) MSHR miss cycles
system.cpu.dcache.overall_mshr_miss_latency::.cpu.data   5171094000                       # number of overall MSHR miss cycles
system.cpu.dcache.overall_mshr_miss_latency::total   5171094000                       # number of overall MSHR miss cycles
system.cpu.dcache.demand_mshr_miss_rate::.cpu.data     0.002084                       # mshr miss rate for demand accesses
system.cpu.dcache.demand_mshr_miss_rate::total     0.002084                       # mshr miss rate for demand accesses
system.cpu.dcache.overall_mshr_miss_rate::.cpu.data     0.002087                       # mshr miss rate for overall accesses
system.cpu.dcache.overall_mshr_miss_rate::total     0.002087                       # mshr miss rate for overall accesses
system.cpu.dcache.demand_avg_mshr_miss_latency::.cpu.data 51860.077254                       # average overall mshr miss latency
system.cpu.dcache.demand_avg_mshr_miss_latency::total 51860.077254                       # average overall mshr miss latency
system.cpu.dcache.overall_avg_mshr_miss_latency::.cpu.data 51906.106962                       # average overall mshr miss latency
system.cpu.dcache.overall_avg_mshr_miss_latency::total 51906.106962                       # average overall mshr miss latency
system.cpu.dcache.replacements                  99112                       # number of replacements
system.cpu.dcache.ReadReq_hits::.cpu.data     30204741                       # number of ReadReq hits
system.cpu.dcache.ReadReq_hits::total        30204741                       # number of ReadReq hits
system.cpu.dcache.ReadReq_misses::.cpu.data        28413                       # number of ReadReq misses
system.cpu.dcache.ReadReq_misses::total         28413                       # number of ReadReq misses
system.cpu.dcache.ReadReq_miss_latency::.cpu.data   1681522000                       # number of ReadReq miss cycles
system.cpu.dcache.ReadReq_miss_latency::total   1681522000                       # number of ReadReq miss cycles
system.cpu.dcache.ReadReq_accesses::.cpu.data     30233154                       # number of ReadReq accesses(hits+misses)
system.cpu.dcache.ReadReq_accesses::total     30233154                       # number of ReadReq accesses(hits+misses)
system.cpu.dcache.ReadReq_miss_rate::.cpu.data     0.000940                       # miss rate for ReadReq accesses
system.cpu.dcache.ReadReq_miss_rate::total     0.000940                       # miss rate for ReadReq accesses
system.cpu.dcache.ReadReq_avg_miss_latency::.cpu.data 59181.431035                       # average ReadReq miss latency
system.cpu.dcache.ReadReq_avg_miss_latency::total 59181.431035                       # average ReadReq miss latency
system.cpu.dcache.ReadReq_mshr_hits::.cpu.data         1570                       # number of ReadReq MSHR hits
system.cpu.dcache.ReadReq_mshr_hits::total         1570                       # number of ReadReq MSHR hits
system.cpu.dcache.ReadReq_mshr_misses::.cpu.data        26843                       # number of ReadReq MSHR misses
system.cpu.dcache.ReadReq_mshr_misses::total        26843                       # number of ReadReq MSHR misses
system.cpu.dcache.ReadReq_mshr_miss_latency::.cpu.data   1478202000                       # number of ReadReq MSHR miss cycles
system.cpu.dcache.ReadReq_mshr_miss_latency::total   1478202000                       # number of ReadReq MSHR miss cycles
system.cpu.dcache.ReadReq_mshr_miss_rate::.cpu.data     0.000888                       # mshr miss rate for ReadReq accesses
system.cpu.dcache.ReadReq_mshr_miss_rate::total     0.000888                       # mshr miss rate for ReadReq accesses
system.cpu.dcache.ReadReq_avg_mshr_miss_latency::.cpu.data 55068.434974                       # average ReadReq mshr miss latency
system.cpu.dcache.ReadReq_avg_mshr_miss_latency::total 55068.434974                       # average ReadReq mshr miss latency
system.cpu.dcache.WriteReq_hits::.cpu.data     17338805                       # number of WriteReq hits
system.cpu.dcache.WriteReq_hits::total       17338805                       # number of WriteReq hits
system.cpu.dcache.WriteReq_misses::.cpu.data       135375                       # number of WriteReq misses
system.cpu.dcache.WriteReq_misses::total       135375                       # number of WriteReq misses
system.cpu.dcache.WriteReq_miss_latency::.cpu.data   5987342000                       # number of WriteReq miss cycles
system.cpu.dcache.WriteReq_miss_latency::total   5987342000                       # number of WriteReq miss cycles
system.cpu.dcache.WriteReq_accesses::.cpu.data     17474180                       # number of WriteReq accesses(hits+misses)
system.cpu.dcache.WriteReq_accesses::total     17474180                       # number of WriteReq accesses(hits+misses)
system.cpu.dcache.WriteReq_miss_rate::.cpu.data     0.007747                       # miss rate for WriteReq accesses
system.cpu.dcache.WriteReq_miss_rate::total     0.007747                       # miss rate for WriteReq accesses
system.cpu.dcache.WriteReq_avg_miss_latency::.cpu.data 44227.826408                       # average WriteReq miss latency
system.cpu.dcache.WriteReq_avg_miss_latency::total 44227.826408                       # average WriteReq miss latency
system.cpu.dcache.WriteReq_mshr_hits::.cpu.data        62806                       # number of WriteReq MSHR hits
system.cpu.dcache.WriteReq_mshr_hits::total        62806                       # number of WriteReq MSHR hits
system.cpu.dcache.WriteReq_mshr_misses::.cpu.data        72569                       # number of WriteReq MSHR misses
system.cpu.dcache.WriteReq_mshr_misses::total        72569                       # number of WriteReq MSHR misses
system.cpu.dcache.WriteReq_mshr_miss_latency::.cpu.data   3677312000                       # number of WriteReq MSHR miss cycles
system.cpu.dcache.WriteReq_mshr_miss_latency::total   3677312000                       # number of WriteReq MSHR miss cycles
system.cpu.dcache.WriteReq_mshr_miss_rate::.cpu.data     0.004153                       # mshr miss rate for WriteReq accesses
system.cpu.dcache.WriteReq_mshr_miss_rate::total     0.004153                       # mshr miss rate for WriteReq accesses
system.cpu.dcache.WriteReq_avg_mshr_miss_latency::.cpu.data 50673.317808                       # average WriteReq mshr miss latency
system.cpu.dcache.WriteReq_avg_mshr_miss_latency::total 50673.317808                       # average WriteReq mshr miss latency
system.cpu.dcache.SoftPFReq_hits::.cpu.data        24986                       # number of SoftPFReq hits
system.cpu.dcache.SoftPFReq_hits::total         24986                       # number of SoftPFReq hits
system.cpu.dcache.SoftPFReq_misses::.cpu.data          235                       # number of SoftPFReq misses
system.cpu.dcache.SoftPFReq_misses::total          235                       # number of SoftPFReq misses
system.cpu.dcache.SoftPFReq_accesses::.cpu.data        25221                       # number of SoftPFReq accesses(hits+misses)
system.cpu.dcache.SoftPFReq_accesses::total        25221                       # number of SoftPFReq accesses(hits+misses)
system.cpu.dcache.SoftPFReq_miss_rate::.cpu.data     0.009318                       # miss rate for SoftPFReq accesses
system.cpu.dcache.SoftPFReq_miss_rate::total     0.009318                       # miss rate for SoftPFReq accesses
system.cpu.dcache.SoftPFReq_mshr_misses::.cpu.data          212                       # number of SoftPFReq MSHR misses
system.cpu.dcache.SoftPFReq_mshr_misses::total          212                       # number of SoftPFReq MSHR misses
system.cpu.dcache.SoftPFReq_mshr_miss_latency::.cpu.data     15580000                       # number of SoftPFReq MSHR miss cycles
system.cpu.dcache.SoftPFReq_mshr_miss_latency::total     15580000                       # number of SoftPFReq MSHR miss cycles
system.cpu.dcache.SoftPFReq_mshr_miss_rate::.cpu.data     0.008406                       # mshr miss rate for SoftPFReq accesses
system.cpu.dcache.SoftPFReq_mshr_miss_rate::total     0.008406                       # mshr miss rate for SoftPFReq accesses
system.cpu.dcache.SoftPFReq_avg_mshr_miss_latency::.cpu.data 73490.566038                       # average SoftPFReq mshr miss latency
system.cpu.dcache.SoftPFReq_avg_mshr_miss_latency::total 73490.566038                       # average SoftPFReq mshr miss latency
system.cpu.dcache.LoadLockedReq_hits::.cpu.data          166                       # number of LoadLockedReq hits
system.cpu.dcache.LoadLockedReq_hits::total          166                       # number of LoadLockedReq hits
system.cpu.dcache.LoadLockedReq_accesses::.cpu.data          166                       # number of LoadLockedReq accesses(hits+misses)
system.cpu.dcache.LoadLockedReq_accesses::total          166                       # number of LoadLockedReq accesses(hits+misses)
system.cpu.dcache.StoreCondReq_hits::.cpu.data          166                       # number of StoreCondReq hits
system.cpu.dcache.StoreCondReq_hits::total          166                       # number of StoreCondReq hits
system.cpu.dcache.StoreCondReq_accesses::.cpu.data          166                       # number of StoreCondReq accesses(hits+misses)
system.cpu.dcache.StoreCondReq_accesses::total          166                       # number of StoreCondReq accesses(hits+misses)
system.cpu.dcache.power_state.pwrStateResidencyTicks::UNDEFINED 277686944000                       # Cumulative time (in ticks) in various power states
system.cpu.dcache.tags.tagsinuse           510.244766                       # Cycle average of tags in use
system.cpu.dcache.tags.total_refs            47668488                       # Total number of references to valid blocks.
system.cpu.dcache.tags.sampled_refs             99624                       # Sample count of references to valid blocks.
system.cpu.dcache.tags.avg_refs            478.483980                       # Average number of references to valid blocks.
system.cpu.dcache.tags.warmup_cycle            330000                       # Cycle when the warmup percentage was hit.
system.cpu.dcache.tags.occ_blocks::.cpu.data   510.244766                       # Average occupied blocks per requestor
system.cpu.dcache.tags.occ_percent::.cpu.data     0.996572                       # Average percentage of cache occupancy
system.cpu.dcache.tags.occ_percent::total     0.996572                       # Average percentage of cache occupancy
system.cpu.dcache.tags.occ_task_id_blocks::1024          512                       # Occupied blocks per task id
system.cpu.dcache.tags.age_task_id_blocks_1024::0            3                       # Occupied blocks per task id
system.cpu.dcache.tags.age_task_id_blocks_1024::1           19                       # Occupied blocks per task id
system.cpu.dcache.tags.age_task_id_blocks_1024::2           95                       # Occupied blocks per task id
system.cpu.dcache.tags.age_task_id_blocks_1024::3          300                       # Occupied blocks per task id
system.cpu.dcache.tags.age_task_id_blocks_1024::4           95                       # Occupied blocks per task id
system.cpu.dcache.tags.occ_task_id_percent::1024            1                       # Percentage of cache occupancy per task id
system.cpu.dcache.tags.tag_accesses          95565398                       # Number of tag accesses
system.cpu.dcache.tags.data_accesses         95565398                       # Number of data accesses
system.cpu.dcache.tags.power_state.pwrStateResidencyTicks::UNDEFINED 277686944000                       # Cumulative time (in ticks) in various power states
system.cpu.dtb.instHits                             0                       # ITB inst hits
system.cpu.dtb.instMisses                           0                       # ITB inst misses
system.cpu.dtb.readHits                             0                       # DTB read hits
system.cpu.dtb.readMisses                           0                       # DTB read misses
system.cpu.dtb.writeHits                            0                       # DTB write hits
system.cpu.dtb.writeMisses                          0                       # DTB write misses
system.cpu.dtb.inserts                              0                       # Number of times an entry is inserted into the TLB
system.cpu.dtb.flushTlb                             0                       # Number of times complete TLB was flushed
system.cpu.dtb.flushTlbMva                          0                       # Number of times TLB was flushed by MVA
system.cpu.dtb.flushTlbMvaAsid                      0                       # Number of times TLB was flushed by MVA & ASID
system.cpu.dtb.flushTlbAsid                         0                       # Number of times TLB was flushed by ASID
system.cpu.dtb.flushedEntries                       0                       # Number of entries that have been flushed from TLB
system.cpu.dtb.alignFaults                          0                       # Number of TLB faults due to alignment restrictions
system.cpu.dtb.prefetchFaults                       0                       # Number of TLB faults due to prefetch
system.cpu.dtb.domainFaults                         0                       # Number of TLB faults due to domain restrictions
system.cpu.dtb.permsFaults                          0                       # Number of TLB faults due to permissions restrictions
system.cpu.dtb.readAccesses                         0                       # DTB read accesses
system.cpu.dtb.writeAccesses                        0                       # DTB write accesses
system.cpu.dtb.instAccesses                         0                       # ITB inst accesses
system.cpu.dtb.hits                                 0                       # Total TLB (inst and data) hits
system.cpu.dtb.misses                               0                       # Total TLB (inst and data) misses
system.cpu.dtb.accesses                             0                       # Total TLB (inst and data) accesses
system.cpu.dtb.stage2_mmu.stage2_tlb.instHits            0                       # ITB inst hits
system.cpu.dtb.stage2_mmu.stage2_tlb.instMisses            0                       # ITB inst misses
system.cpu.dtb.stage2_mmu.stage2_tlb.readHits            0                       # DTB read hits
system.cpu.dtb.stage2_mmu.stage2_tlb.readMisses            0                       # DTB read misses
system.cpu.dtb.stage2_mmu.stage2_tlb.writeHits            0                       # DTB write hits
system.cpu.dtb.stage2_mmu.stage2_tlb.writeMisses            0                       # DTB write misses
system.cpu.dtb.stage2_mmu.stage2_tlb.inserts            0                       # Number of times an entry is inserted into the TLB
system.cpu.dtb.stage2_mmu.stage2_tlb.flushTlb            0                       # Number of times complete TLB was flushed
system.cpu.dtb.stage2_mmu.stage2_tlb.flushTlbMva            0                       # Number of times TLB was flushed by MVA
system.cpu.dtb.stage2_mmu.stage2_tlb.flushTlbMvaAsid            0                       # Number of times TLB was flushed by MVA & ASID
system.cpu.dtb.stage2_mmu.stage2_tlb.flushTlbAsid            0                       # Number of times TLB was flushed by ASID
system.cpu.dtb.stage2_mmu.stage2_tlb.flushedEntries            0                       # Number of entries that have been flushed from TLB
system.cpu.dtb.stage2_mmu.stage2_tlb.alignFaults            0                       # Number of TLB faults due to alignment restrictions
system.cpu.dtb.stage2_mmu.stage2_tlb.prefetchFaults            0                       # Number of TLB faults due to prefetch
system.cpu.dtb.stage2_mmu.stage2_tlb.domainFaults            0                       # Number of TLB faults due to domain restrictions
system.cpu.dtb.stage2_mmu.stage2_tlb.permsFaults            0                       # Number of TLB faults due to permissions restrictions
system.cpu.dtb.stage2_mmu.stage2_tlb.readAccesses            0                       # DTB read accesses
system.cpu.dtb.stage2_mmu.stage2_tlb.writeAccesses            0                       # DTB write accesses
system.cpu.dtb.stage2_mmu.stage2_tlb.instAccesses            0                       # ITB inst accesses
system.cpu.dtb.stage2_mmu.stage2_tlb.hits            0                       # Total TLB (inst and data) hits
system.cpu.dtb.stage2_mmu.stage2_tlb.misses            0                       # Total TLB (inst and data) misses
system.cpu.dtb.stage2_mmu.stage2_tlb.accesses            0                       # Total TLB (inst and data) accesses
system.cpu.dtb.stage2_mmu.stage2_tlb.walker.walks            0                       # Table walker walks requested
system.cpu.dtb.stage2_mmu.stage2_tlb.walker.requestOrigin_Requested::Data            0                       # Table walker requests started/completed, data/inst
system.cpu.dtb.stage2_mmu.stage2_tlb.walker.requestOrigin_Requested::Inst            0                       # Table walker requests started/completed, data/inst
system.cpu.dtb.stage2_mmu.stage2_tlb.walker.requestOrigin_Requested::total            0                       # Table walker requests started/completed, data/inst
system.cpu.dtb.stage2_mmu.stage2_tlb.walker.requestOrigin_Completed::Data            0                       # Table walker requests started/completed, data/inst
system.cpu.dtb.stage2_mmu.stage2_tlb.walker.requestOrigin_Completed::Inst            0                       # Table walker requests started/completed, data/inst
system.cpu.dtb.stage2_mmu.stage2_tlb.walker.requestOrigin_Completed::total            0                       # Table walker requests started/completed, data/inst
system.cpu.dtb.stage2_mmu.stage2_tlb.walker.requestOrigin::total            0                       # Table walker requests started/completed, data/inst
system.cpu.dtb.stage2_mmu.stage2_tlb.walker.power_state.pwrStateResidencyTicks::UNDEFINED 277686944000                       # Cumulative time (in ticks) in various power states
system.cpu.dtb.walker.walks                         0                       # Table walker walks requested
system.cpu.dtb.walker.requestOrigin_Requested::Data            0                       # Table walker requests started/completed, data/inst
system.cpu.dtb.walker.requestOrigin_Requested::Inst            0                       # Table walker requests started/completed, data/inst
system.cpu.dtb.walker.requestOrigin_Requested::total            0                       # Table walker requests started/completed, data/inst
system.cpu.dtb.walker.requestOrigin_Completed::Data            0                       # Table walker requests started/completed, data/inst
system.cpu.dtb.walker.requestOrigin_Completed::Inst            0                       # Table walker requests started/completed, data/inst
system.cpu.dtb.walker.requestOrigin_Completed::total            0                       # Table walker requests started/completed, data/inst
system.cpu.dtb.walker.requestOrigin::total            0                       # Table walker requests started/completed, data/inst
system.cpu.dtb.walker.power_state.pwrStateResidencyTicks::UNDEFINED 277686944000                       # Cumulative time (in ticks) in various power states
system.cpu.fetch2.intInstructions            37725993                       # Number of integer instructions successfully decoded
system.cpu.fetch2.fpInstructions                    0                       # Number of floating point instructions successfully decoded
system.cpu.fetch2.vecInstructions                   0                       # Number of SIMD instructions successfully decoded
system.cpu.fetch2.loadInstructions           17245686                       # Number of memory load instructions successfully decoded
system.cpu.fetch2.storeInstructions          14150980                       # Number of memory store instructions successfully decoded
system.cpu.fetch2.amoInstructions                   0                       # Number of memory atomic instructions successfully decoded
system.cpu.icache.demand_hits::.cpu.inst     13682225                       # number of demand (read+write) hits
system.cpu.icache.demand_hits::total         13682225                       # number of demand (read+write) hits
system.cpu.icache.overall_hits::.cpu.inst     13682225                       # number of overall hits
system.cpu.icache.overall_hits::total        13682225                       # number of overall hits
system.cpu.icache.demand_misses::.cpu.inst          777                       # number of demand (read+write) misses
system.cpu.icache.demand_misses::total            777                       # number of demand (read+write) misses
system.cpu.icache.overall_misses::.cpu.inst          777                       # number of overall misses
system.cpu.icache.overall_misses::total           777                       # number of overall misses
system.cpu.icache.demand_miss_latency::.cpu.inst    116340000                       # number of demand (read+write) miss cycles
system.cpu.icache.demand_miss_latency::total    116340000                       # number of demand (read+write) miss cycles
system.cpu.icache.overall_miss_latency::.cpu.inst    116340000                       # number of overall miss cycles
system.cpu.icache.overall_miss_latency::total    116340000                       # number of overall miss cycles
system.cpu.icache.demand_accesses::.cpu.inst     13683002                       # number of demand (read+write) accesses
system.cpu.icache.demand_accesses::total     13683002                       # number of demand (read+write) accesses
system.cpu.icache.overall_accesses::.cpu.inst     13683002                       # number of overall (read+write) accesses
system.cpu.icache.overall_accesses::total     13683002                       # number of overall (read+write) accesses
system.cpu.icache.demand_miss_rate::.cpu.inst     0.000057                       # miss rate for demand accesses
system.cpu.icache.demand_miss_rate::total     0.000057                       # miss rate for demand accesses
system.cpu.icache.overall_miss_rate::.cpu.inst     0.000057                       # miss rate for overall accesses
system.cpu.icache.overall_miss_rate::total     0.000057                       # miss rate for overall accesses
system.cpu.icache.demand_avg_miss_latency::.cpu.inst 149729.729730                       # average overall miss latency
system.cpu.icache.demand_avg_miss_latency::total 149729.729730                       # average overall miss latency
system.cpu.icache.overall_avg_miss_latency::.cpu.inst 149729.729730                       # average overall miss latency
system.cpu.icache.overall_avg_miss_latency::total 149729.729730                       # average overall miss latency
system.cpu.icache.blocked_cycles::no_mshrs            0                       # number of cycles access was blocked
system.cpu.icache.blocked_cycles::no_targets            0                       # number of cycles access was blocked
system.cpu.icache.blocked::no_mshrs                 0                       # number of cycles access was blocked
system.cpu.icache.blocked::no_targets               0                       # number of cycles access was blocked
system.cpu.icache.avg_blocked_cycles::no_mshrs          nan                       # average number of cycles each access was blocked
system.cpu.icache.avg_blocked_cycles::no_targets          nan                       # average number of cycles each access was blocked
system.cpu.icache.writebacks::.writebacks          120                       # number of writebacks
system.cpu.icache.writebacks::total               120                       # number of writebacks
system.cpu.icache.demand_mshr_misses::.cpu.inst          777                       # number of demand (read+write) MSHR misses
system.cpu.icache.demand_mshr_misses::total          777                       # number of demand (read+write) MSHR misses
system.cpu.icache.overall_mshr_misses::.cpu.inst          777                       # number of overall MSHR misses
system.cpu.icache.overall_mshr_misses::total          777                       # number of overall MSHR misses
system.cpu.icache.demand_mshr_miss_latency::.cpu.inst    113232000                       # number of demand (read+write) MSHR miss cycles
system.cpu.icache.demand_mshr_miss_latency::total    113232000                       # number of demand (read+write) MSHR miss cycles
system.cpu.icache.overall_mshr_miss_latency::.cpu.inst    113232000                       # number of overall MSHR miss cycles
system.cpu.icache.overall_mshr_miss_latency::total    113232000                       # number of overall MSHR miss cycles
system.cpu.icache.demand_mshr_miss_rate::.cpu.inst     0.000057                       # mshr miss rate for demand accesses
system.cpu.icache.demand_mshr_miss_rate::total     0.000057                       # mshr miss rate for demand accesses
system.cpu.icache.overall_mshr_miss_rate::.cpu.inst     0.000057                       # mshr miss rate for overall accesses
system.cpu.icache.overall_mshr_miss_rate::total     0.000057                       # mshr miss rate for overall accesses
system.cpu.icache.demand_avg_mshr_miss_latency::.cpu.inst 145729.729730                       # average overall mshr miss latency
system.cpu.icache.demand_avg_mshr_miss_latency::total 145729.729730                       # average overall mshr miss latency
system.cpu.icache.overall_avg_mshr_miss_latency::.cpu.inst 145729.729730                       # average overall mshr miss latency
system.cpu.icache.overall_avg_mshr_miss_latency::total 145729.729730                       # average overall mshr miss latency
system.cpu.icache.replacements                    120                       # number of replacements
system.cpu.icache.ReadReq_hits::.cpu.inst     13682225                       # number of ReadReq hits
system.cpu.icache.ReadReq_hits::total        13682225                       # number of ReadReq hits
system.cpu.icache.ReadReq_misses::.cpu.inst          777                       # number of ReadReq misses
system.cpu.icache.ReadReq_misses::total           777                       # number of ReadReq misses
system.cpu.icache.ReadReq_miss_latency::.cpu.inst    116340000                       # number of ReadReq miss cycles
system.cpu.icache.ReadReq_miss_latency::total    116340000                       # number of ReadReq miss cycles
system.cpu.icache.ReadReq_accesses::.cpu.inst     13683002                       # number of ReadReq accesses(hits+misses)
system.cpu.icache.ReadReq_accesses::total     13683002                       # number of ReadReq accesses(hits+misses)
system.cpu.icache.ReadReq_miss_rate::.cpu.inst     0.000057                       # miss rate for ReadReq accesses
system.cpu.icache.ReadReq_miss_rate::total     0.000057                       # miss rate for ReadReq accesses
system.cpu.icache.ReadReq_avg_miss_latency::.cpu.inst 149729.729730                       # average ReadReq miss latency
system.cpu.icache.ReadReq_avg_miss_latency::total 149729.729730                       # average ReadReq miss latency
system.cpu.icache.ReadReq_mshr_misses::.cpu.inst          777                       # number of ReadReq MSHR misses
system.cpu.icache.ReadReq_mshr_misses::total          777                       # number of ReadReq MSHR misses
system.cpu.icache.ReadReq_mshr_miss_latency::.cpu.inst    113232000                       # number of ReadReq MSHR miss cycles
system.cpu.icache.ReadReq_mshr_miss_latency::total    113232000                       # number of ReadReq MSHR miss cycles
system.cpu.icache.ReadReq_mshr_miss_rate::.cpu.inst     0.000057                       # mshr miss rate for ReadReq accesses
system.cpu.icache.ReadReq_mshr_miss_rate::total     0.000057                       # mshr miss rate for ReadReq accesses
system.cpu.icache.ReadReq_avg_mshr_miss_latency::.cpu.inst 145729.729730                       # average ReadReq mshr miss latency
system.cpu.icache.ReadReq_avg_mshr_miss_latency::total 145729.729730                       # average ReadReq mshr miss latency
system.cpu.icache.power_state.pwrStateResidencyTicks::UNDEFINED 277686944000                       # Cumulative time (in ticks) in various power states
system.cpu.icache.tags.tagsinuse           656.070657                       # Cycle average of tags in use
system.cpu.icache.tags.total_refs            13683002                       # Total number of references to valid blocks.
system.cpu.icache.tags.sampled_refs               777                       # Sample count of references to valid blocks.
system.cpu.icache.tags.avg_refs          17610.041184                       # Average number of references to valid blocks.
system.cpu.icache.tags.warmup_cycle            158000                       # Cycle when the warmup percentage was hit.
system.cpu.icache.tags.occ_blocks::.cpu.inst   656.070657                       # Average occupied blocks per requestor
system.cpu.icache.tags.occ_percent::.cpu.inst     0.640694                       # Average percentage of cache occupancy
system.cpu.icache.tags.occ_percent::total     0.640694                       # Average percentage of cache occupancy
system.cpu.icache.tags.occ_task_id_blocks::1024          657                       # Occupied blocks per task id
system.cpu.icache.tags.age_task_id_blocks_1024::4          657                       # Occupied blocks per task id
system.cpu.icache.tags.occ_task_id_percent::1024     0.641602                       # Percentage of cache occupancy per task id
system.cpu.icache.tags.tag_accesses          27366781                       # Number of tag accesses
system.cpu.icache.tags.data_accesses         27366781                       # Number of data accesses
system.cpu.icache.tags.power_state.pwrStateResidencyTicks::UNDEFINED 277686944000                       # Cumulative time (in ticks) in various power states
system.cpu.itb.instHits                             0                       # ITB inst hits
system.cpu.itb.instMisses                           0                       # ITB inst misses
system.cpu.itb.readHits                             0                       # DTB read hits
system.cpu.itb.readMisses                           0                       # DTB read misses
system.cpu.itb.writeHits                            0                       # DTB write hits
system.cpu.itb.writeMisses                          0                       # DTB write misses
system.cpu.itb.inserts                              0                       # Number of times an entry is inserted into the TLB
system.cpu.itb.flushTlb                             0                       # Number of times complete TLB was flushed
system.cpu.itb.flushTlbMva                          0                       # Number of times TLB was flushed by MVA
system.cpu.itb.flushTlbMvaAsid                      0                       # Number of times TLB was flushed by MVA & ASID
system.cpu.itb.flushTlbAsid                         0                       # Number of times TLB was flushed by ASID
system.cpu.itb.flushedEntries                       0                       # Number of entries that have been flushed from TLB
system.cpu.itb.alignFaults                          0                       # Number of TLB faults due to alignment restrictions
system.cpu.itb.prefetchFaults                       0                       # Number of TLB faults due to prefetch
system.cpu.itb.domainFaults                         0                       # Number of TLB faults due to domain restrictions
system.cpu.itb.permsFaults                          0                       # Number of TLB faults due to permissions restrictions
system.cpu.itb.readAccesses                         0                       # DTB read accesses
system.cpu.itb.writeAccesses                        0                       # DTB write accesses
system.cpu.itb.instAccesses                         0                       # ITB inst accesses
system.cpu.itb.hits                                 0                       # Total TLB (inst and data) hits
system.cpu.itb.misses                               0                       # Total TLB (inst and data) misses
system.cpu.itb.accesses                             0                       # Total TLB (inst and data) accesses
system.cpu.itb.stage2_mmu.stage2_tlb.instHits            0                       # ITB inst hits
system.cpu.itb.stage2_mmu.stage2_tlb.instMisses            0                       # ITB inst misses
system.cpu.itb.stage2_mmu.stage2_tlb.readHits            0                       # DTB read hits
system.cpu.itb.stage2_mmu.stage2_tlb.readMisses            0                       # DTB read misses
system.cpu.itb.stage2_mmu.stage2_tlb.writeHits            0                       # DTB write hits
system.cpu.itb.stage2_mmu.stage2_tlb.writeMisses            0                       # DTB write misses
system.cpu.itb.stage2_mmu.stage2_tlb.inserts            0                       # Number of times an entry is inserted into the TLB
system.cpu.itb.stage2_mmu.stage2_tlb.flushTlb            0                       # Number of times complete TLB was flushed
system.cpu.itb.stage2_mmu.stage2_tlb.flushTlbMva            0                       # Number of times TLB was flushed by MVA
system.cpu.itb.stage2_mmu.stage2_tlb.flushTlbMvaAsid            0                       # Number of times TLB was flushed by MVA & ASID
system.cpu.itb.stage2_mmu.stage2_tlb.flushTlbAsid            0                       # Number of times TLB was flushed by ASID
system.cpu.itb.stage2_mmu.stage2_tlb.flushedEntries            0                       # Number of entries that have been flushed from TLB
system.cpu.itb.stage2_mmu.stage2_tlb.alignFaults            0                       # Number of TLB faults due to alignment restrictions
system.cpu.itb.stage2_mmu.stage2_tlb.prefetchFaults            0                       # Number of TLB faults due to prefetch
system.cpu.itb.stage2_mmu.stage2_tlb.domainFaults            0                       # Number of TLB faults due to domain restrictions
system.cpu.itb.stage2_mmu.stage2_tlb.permsFaults            0                       # Number of TLB faults due to permissions restrictions
system.cpu.itb.stage2_mmu.stage2_tlb.readAccesses            0                       # DTB read accesses
system.cpu.itb.stage2_mmu.stage2_tlb.writeAccesses            0                       # DTB write accesses
system.cpu.itb.stage2_mmu.stage2_tlb.instAccesses            0                       # ITB inst accesses
system.cpu.itb.stage2_mmu.stage2_tlb.hits            0                       # Total TLB (inst and data) hits
system.cpu.itb.stage2_mmu.stage2_tlb.misses            0                       # Total TLB (inst and data) misses
system.cpu.itb.stage2_mmu.stage2_tlb.accesses            0                       # Total TLB (inst and data) accesses
system.cpu.itb.stage2_mmu.stage2_tlb.walker.walks            0                       # Table walker walks requested
system.cpu.itb.stage2_mmu.stage2_tlb.walker.requestOrigin_Requested::Data            0                       # Table walker requests started/completed, data/inst
system.cpu.itb.stage2_mmu.stage2_tlb.walker.requestOrigin_Requested::Inst            0                       # Table walker requests started/completed, data/inst
system.cpu.itb.stage2_mmu.stage2_tlb.walker.requestOrigin_Requested::total            0                       # Table walker requests started/completed, data/inst
system.cpu.itb.stage2_mmu.stage2_tlb.walker.requestOrigin_Completed::Data            0                       # Table walker requests started/completed, data/inst
system.cpu.itb.stage2_mmu.stage2_tlb.walker.requestOrigin_Completed::Inst            0                       # Table walker requests started/completed, data/inst
system.cpu.itb.stage2_mmu.stage2_tlb.walker.requestOrigin_Completed::total            0                       # Table walker requests started/completed, data/inst
system.cpu.itb.stage2_mmu.stage2_tlb.walker.requestOrigin::total            0                       # Table walker requests started/completed, data/inst
system.cpu.itb.stage2_mmu.stage2_tlb.walker.power_state.pwrStateResidencyTicks::UNDEFINED 277686944000                       # Cumulative time (in ticks) in various power states
system.cpu.itb.walker.walks                         0                       # Table walker walks requested
system.cpu.itb.walker.requestOrigin_Requested::Data            0                       # Table walker requests started/completed, data/inst
system.cpu.itb.walker.requestOrigin_Requested::Inst            0                       # Table walker requests started/completed, data/inst
system.cpu.itb.walker.requestOrigin_Requested::total            0                       # Table walker requests started/completed, data/inst
system.cpu.itb.walker.requestOrigin_Completed::Data            0                       # Table walker requests started/completed, data/inst
system.cpu.itb.walker.requestOrigin_Completed::Inst            0                       # Table walker requests started/completed, data/inst
system.cpu.itb.walker.requestOrigin_Completed::total            0                       # Table walker requests started/completed, data/inst
system.cpu.itb.walker.requestOrigin::total            0                       # Table walker requests started/completed, data/inst
system.cpu.itb.walker.power_state.pwrStateResidencyTicks::UNDEFINED 277686944000                       # Cumulative time (in ticks) in various power states
system.cpu.power_state.pwrStateResidencyTicks::ON 277686944000                       # Cumulative time (in ticks) in various power states
system.cpu.thread17522.numInsts             100000000                       # Number of Instructions committed
system.cpu.thread17522.numOps               116826589                       # Number of Ops committed
system.cpu.thread17522.numMemRefs                   0                       # Number of Memory References
system.cpu_clk_domain.clock                      2000                       # Clock period in ticks
system.cpu_voltage_domain.voltage                   1                       # Voltage in Volts
system.l2.demand_hits::.cpu.inst                   45                       # number of demand (read+write) hits
system.l2.demand_hits::.cpu.data                97314                       # number of demand (read+write) hits
system.l2.demand_hits::total                    97359                       # number of demand (read+write) hits
system.l2.overall_hits::.cpu.inst                  45                       # number of overall hits
system.l2.overall_hits::.cpu.data               97314                       # number of overall hits
system.l2.overall_hits::total                   97359                       # number of overall hits
system.l2.demand_misses::.cpu.inst                732                       # number of demand (read+write) misses
system.l2.demand_misses::.cpu.data               2310                       # number of demand (read+write) misses
system.l2.demand_misses::total                   3042                       # number of demand (read+write) misses
system.l2.overall_misses::.cpu.inst               732                       # number of overall misses
system.l2.overall_misses::.cpu.data              2310                       # number of overall misses
system.l2.overall_misses::total                  3042                       # number of overall misses
system.l2.demand_miss_latency::.cpu.inst    106460000                       # number of demand (read+write) miss cycles
system.l2.demand_miss_latency::.cpu.data    338928000                       # number of demand (read+write) miss cycles
system.l2.demand_miss_latency::total        445388000                       # number of demand (read+write) miss cycles
system.l2.overall_miss_latency::.cpu.inst    106460000                       # number of overall miss cycles
system.l2.overall_miss_latency::.cpu.data    338928000                       # number of overall miss cycles
system.l2.overall_miss_latency::total       445388000                       # number of overall miss cycles
system.l2.demand_accesses::.cpu.inst              777                       # number of demand (read+write) accesses
system.l2.demand_accesses::.cpu.data            99624                       # number of demand (read+write) accesses
system.l2.demand_accesses::total               100401                       # number of demand (read+write) accesses
system.l2.overall_accesses::.cpu.inst             777                       # number of overall (read+write) accesses
system.l2.overall_accesses::.cpu.data           99624                       # number of overall (read+write) accesses
system.l2.overall_accesses::total              100401                       # number of overall (read+write) accesses
system.l2.demand_miss_rate::.cpu.inst        0.942085                       # miss rate for demand accesses
system.l2.demand_miss_rate::.cpu.data        0.023187                       # miss rate for demand accesses
system.l2.demand_miss_rate::total            0.030299                       # miss rate for demand accesses
system.l2.overall_miss_rate::.cpu.inst       0.942085                       # miss rate for overall accesses
system.l2.overall_miss_rate::.cpu.data       0.023187                       # miss rate for overall accesses
system.l2.overall_miss_rate::total           0.030299                       # miss rate for overall accesses
system.l2.demand_avg_miss_latency::.cpu.inst 145437.158470                       # average overall miss latency
system.l2.demand_avg_miss_latency::.cpu.data 146722.077922                       # average overall miss latency
system.l2.demand_avg_miss_latency::total 146412.886259                       # average overall miss latency
system.l2.overall_avg_miss_latency::.cpu.inst 145437.158470                       # average overall miss latency
system.l2.overall_avg_miss_latency::.cpu.data 146722.077922                       # average overall miss latency
system.l2.overall_avg_miss_latency::total 146412.886259                       # average overall miss latency
system.l2.blocked_cycles::no_mshrs                  0                       # number of cycles access was blocked
system.l2.blocked_cycles::no_targets                0                       # number of cycles access was blocked
system.l2.blocked::no_mshrs                         0                       # number of cycles access was blocked
system.l2.blocked::no_targets                       0                       # number of cycles access was blocked
system.l2.avg_blocked_cycles::no_mshrs            nan                       # average number of cycles each access was blocked
system.l2.avg_blocked_cycles::no_targets          nan                       # average number of cycles each access was blocked
system.l2.demand_mshr_hits::.cpu.inst               1                       # number of demand (read+write) MSHR hits
system.l2.demand_mshr_hits::.cpu.data              16                       # number of demand (read+write) MSHR hits
system.l2.demand_mshr_hits::total                  17                       # number of demand (read+write) MSHR hits
system.l2.overall_mshr_hits::.cpu.inst              1                       # number of overall MSHR hits
system.l2.overall_mshr_hits::.cpu.data             16                       # number of overall MSHR hits
system.l2.overall_mshr_hits::total                 17                       # number of overall MSHR hits
system.l2.demand_mshr_misses::.cpu.inst           731                       # number of demand (read+write) MSHR misses
system.l2.demand_mshr_misses::.cpu.data          2294                       # number of demand (read+write) MSHR misses
system.l2.demand_mshr_misses::total              3025                       # number of demand (read+write) MSHR misses
system.l2.overall_mshr_misses::.cpu.inst          731                       # number of overall MSHR misses
system.l2.overall_mshr_misses::.cpu.data         2294                       # number of overall MSHR misses
system.l2.overall_mshr_misses::total             3025                       # number of overall MSHR misses
system.l2.demand_mshr_miss_latency::.cpu.inst     77104000                       # number of demand (read+write) MSHR miss cycles
system.l2.demand_mshr_miss_latency::.cpu.data    245182000                       # number of demand (read+write) MSHR miss cycles
system.l2.demand_mshr_miss_latency::total    322286000                       # number of demand (read+write) MSHR miss cycles
system.l2.overall_mshr_miss_latency::.cpu.inst     77104000                       # number of overall MSHR miss cycles
system.l2.overall_mshr_miss_latency::.cpu.data    245182000                       # number of overall MSHR miss cycles
system.l2.overall_mshr_miss_latency::total    322286000                       # number of overall MSHR miss cycles
system.l2.demand_mshr_miss_rate::.cpu.inst     0.940798                       # mshr miss rate for demand accesses
system.l2.demand_mshr_miss_rate::.cpu.data     0.023027                       # mshr miss rate for demand accesses
system.l2.demand_mshr_miss_rate::total       0.030129                       # mshr miss rate for demand accesses
system.l2.overall_mshr_miss_rate::.cpu.inst     0.940798                       # mshr miss rate for overall accesses
system.l2.overall_mshr_miss_rate::.cpu.data     0.023027                       # mshr miss rate for overall accesses
system.l2.overall_mshr_miss_rate::total      0.030129                       # mshr miss rate for overall accesses
system.l2.demand_avg_mshr_miss_latency::.cpu.inst 105477.428181                       # average overall mshr miss latency
system.l2.demand_avg_mshr_miss_latency::.cpu.data 106879.686138                       # average overall mshr miss latency
system.l2.demand_avg_mshr_miss_latency::total 106540.826446                       # average overall mshr miss latency
system.l2.overall_avg_mshr_miss_latency::.cpu.inst 105477.428181                       # average overall mshr miss latency
system.l2.overall_avg_mshr_miss_latency::.cpu.data 106879.686138                       # average overall mshr miss latency
system.l2.overall_avg_mshr_miss_latency::total 106540.826446                       # average overall mshr miss latency
system.l2.replacements                              0                       # number of replacements
system.l2.WritebackDirty_hits::.writebacks        96205                       # number of WritebackDirty hits
system.l2.WritebackDirty_hits::total            96205                       # number of WritebackDirty hits
system.l2.WritebackDirty_accesses::.writebacks        96205                       # number of WritebackDirty accesses(hits+misses)
system.l2.WritebackDirty_accesses::total        96205                       # number of WritebackDirty accesses(hits+misses)
system.l2.WritebackClean_hits::.writebacks          113                       # number of WritebackClean hits
system.l2.WritebackClean_hits::total              113                       # number of WritebackClean hits
system.l2.WritebackClean_accesses::.writebacks          113                       # number of WritebackClean accesses(hits+misses)
system.l2.WritebackClean_accesses::total          113                       # number of WritebackClean accesses(hits+misses)
system.l2.ReadExReq_hits::.cpu.data             71046                       # number of ReadExReq hits
system.l2.ReadExReq_hits::total                 71046                       # number of ReadExReq hits
system.l2.ReadExReq_misses::.cpu.data            1857                       # number of ReadExReq misses
system.l2.ReadExReq_misses::total                1857                       # number of ReadExReq misses
system.l2.ReadExReq_miss_latency::.cpu.data    270422000                       # number of ReadExReq miss cycles
system.l2.ReadExReq_miss_latency::total     270422000                       # number of ReadExReq miss cycles
system.l2.ReadExReq_accesses::.cpu.data         72903                       # number of ReadExReq accesses(hits+misses)
system.l2.ReadExReq_accesses::total             72903                       # number of ReadExReq accesses(hits+misses)
system.l2.ReadExReq_miss_rate::.cpu.data     0.025472                       # miss rate for ReadExReq accesses
system.l2.ReadExReq_miss_rate::total         0.025472                       # miss rate for ReadExReq accesses
system.l2.ReadExReq_avg_miss_latency::.cpu.data 145623.047927                       # average ReadExReq miss latency
system.l2.ReadExReq_avg_miss_latency::total 145623.047927                       # average ReadExReq miss latency
system.l2.ReadExReq_mshr_misses::.cpu.data         1857                       # number of ReadExReq MSHR misses
system.l2.ReadExReq_mshr_misses::total           1857                       # number of ReadExReq MSHR misses
system.l2.ReadExReq_mshr_miss_latency::.cpu.data    196123000                       # number of ReadExReq MSHR miss cycles
system.l2.ReadExReq_mshr_miss_latency::total    196123000                       # number of ReadExReq MSHR miss cycles
system.l2.ReadExReq_mshr_miss_rate::.cpu.data     0.025472                       # mshr miss rate for ReadExReq accesses
system.l2.ReadExReq_mshr_miss_rate::total     0.025472                       # mshr miss rate for ReadExReq accesses
system.l2.ReadExReq_avg_mshr_miss_latency::.cpu.data 105612.816370                       # average ReadExReq mshr miss latency
system.l2.ReadExReq_avg_mshr_miss_latency::total 105612.816370                       # average ReadExReq mshr miss latency
system.l2.ReadCleanReq_hits::.cpu.inst             45                       # number of ReadCleanReq hits
system.l2.ReadCleanReq_hits::total                 45                       # number of ReadCleanReq hits
system.l2.ReadCleanReq_misses::.cpu.inst          732                       # number of ReadCleanReq misses
system.l2.ReadCleanReq_misses::total              732                       # number of ReadCleanReq misses
system.l2.ReadCleanReq_miss_latency::.cpu.inst    106460000                       # number of ReadCleanReq miss cycles
system.l2.ReadCleanReq_miss_latency::total    106460000                       # number of ReadCleanReq miss cycles
system.l2.ReadCleanReq_accesses::.cpu.inst          777                       # number of ReadCleanReq accesses(hits+misses)
system.l2.ReadCleanReq_accesses::total            777                       # number of ReadCleanReq accesses(hits+misses)
system.l2.ReadCleanReq_miss_rate::.cpu.inst     0.942085                       # miss rate for ReadCleanReq accesses
system.l2.ReadCleanReq_miss_rate::total      0.942085                       # miss rate for ReadCleanReq accesses
system.l2.ReadCleanReq_avg_miss_latency::.cpu.inst 145437.158470                       # average ReadCleanReq miss latency
system.l2.ReadCleanReq_avg_miss_latency::total 145437.158470                       # average ReadCleanReq miss latency
system.l2.ReadCleanReq_mshr_hits::.cpu.inst            1                       # number of ReadCleanReq MSHR hits
system.l2.ReadCleanReq_mshr_hits::total             1                       # number of ReadCleanReq MSHR hits
system.l2.ReadCleanReq_mshr_misses::.cpu.inst          731                       # number of ReadCleanReq MSHR misses
system.l2.ReadCleanReq_mshr_misses::total          731                       # number of ReadCleanReq MSHR misses
system.l2.ReadCleanReq_mshr_miss_latency::.cpu.inst     77104000                       # number of ReadCleanReq MSHR miss cycles
system.l2.ReadCleanReq_mshr_miss_latency::total     77104000                       # number of ReadCleanReq MSHR miss cycles
system.l2.ReadCleanReq_mshr_miss_rate::.cpu.inst     0.940798                       # mshr miss rate for ReadCleanReq accesses
system.l2.ReadCleanReq_mshr_miss_rate::total     0.940798                       # mshr miss rate for ReadCleanReq accesses
system.l2.ReadCleanReq_avg_mshr_miss_latency::.cpu.inst 105477.428181                       # average ReadCleanReq mshr miss latency
system.l2.ReadCleanReq_avg_mshr_miss_latency::total 105477.428181                       # average ReadCleanReq mshr miss latency
system.l2.ReadSharedReq_hits::.cpu.data         26268                       # number of ReadSharedReq hits
system.l2.ReadSharedReq_hits::total             26268                       # number of ReadSharedReq hits
system.l2.ReadSharedReq_misses::.cpu.data          453                       # number of ReadSharedReq misses
system.l2.ReadSharedReq_misses::total             453                       # number of ReadSharedReq misses
system.l2.ReadSharedReq_miss_latency::.cpu.data     68506000                       # number of ReadSharedReq miss cycles
system.l2.ReadSharedReq_miss_latency::total     68506000                       # number of ReadSharedReq miss cycles
system.l2.ReadSharedReq_accesses::.cpu.data        26721                       # number of ReadSharedReq accesses(hits+misses)
system.l2.ReadSharedReq_accesses::total         26721                       # number of ReadSharedReq accesses(hits+misses)
system.l2.ReadSharedReq_miss_rate::.cpu.data     0.016953                       # miss rate for ReadSharedReq accesses
system.l2.ReadSharedReq_miss_rate::total     0.016953                       # miss rate for ReadSharedReq accesses
system.l2.ReadSharedReq_avg_miss_latency::.cpu.data 151227.373068                       # average ReadSharedReq miss latency
system.l2.ReadSharedReq_avg_miss_latency::total 151227.373068                       # average ReadSharedReq miss latency
system.l2.ReadSharedReq_mshr_hits::.cpu.data           16                       # number of ReadSharedReq MSHR hits
system.l2.ReadSharedReq_mshr_hits::total           16                       # number of ReadSharedReq MSHR hits
system.l2.ReadSharedReq_mshr_misses::.cpu.data          437                       # number of ReadSharedReq MSHR misses
system.l2.ReadSharedReq_mshr_misses::total          437                       # number of ReadSharedReq MSHR misses
system.l2.ReadSharedReq_mshr_miss_latency::.cpu.data     49059000                       # number of ReadSharedReq MSHR miss cycles
system.l2.ReadSharedReq_mshr_miss_latency::total     49059000                       # number of ReadSharedReq MSHR miss cycles
system.l2.ReadSharedReq_mshr_miss_rate::.cpu.data     0.016354                       # mshr miss rate for ReadSharedReq accesses
system.l2.ReadSharedReq_mshr_miss_rate::total     0.016354                       # mshr miss rate for ReadSharedReq accesses
system.l2.ReadSharedReq_avg_mshr_miss_latency::.cpu.data 112263.157895                       # average ReadSharedReq mshr miss latency
system.l2.ReadSharedReq_avg_mshr_miss_latency::total 112263.157895                       # average ReadSharedReq mshr miss latency
system.l2.power_state.pwrStateResidencyTicks::UNDEFINED 277686944000                       # Cumulative time (in ticks) in various power states
system.l2.tags.tagsinuse                  2979.478833                       # Cycle average of tags in use
system.l2.tags.total_refs                      197963                       # Total number of references to valid blocks.
system.l2.tags.sampled_refs                      3025                       # Sample count of references to valid blocks.
system.l2.tags.avg_refs                     65.442314                       # Average number of references to valid blocks.
system.l2.tags.warmup_cycle                    116000                       # Cycle when the warmup percentage was hit.
system.l2.tags.occ_blocks::.cpu.inst       729.606185                       # Average occupied blocks per requestor
system.l2.tags.occ_blocks::.cpu.data      2249.872648                       # Average occupied blocks per requestor
system.l2.tags.occ_percent::.cpu.inst        0.022266                       # Average percentage of cache occupancy
system.l2.tags.occ_percent::.cpu.data        0.068661                       # Average percentage of cache occupancy
system.l2.tags.occ_percent::total            0.090926                       # Average percentage of cache occupancy
system.l2.tags.occ_task_id_blocks::1024          3025                       # Occupied blocks per task id
system.l2.tags.age_task_id_blocks_1024::4         3025                       # Occupied blocks per task id
system.l2.tags.occ_task_id_percent::1024     0.092316                       # Percentage of cache occupancy per task id
system.l2.tags.tag_accesses                    201005                       # Number of tag accesses
system.l2.tags.data_accesses                   201005                       # Number of data accesses
system.l2.tags.power_state.pwrStateResidencyTicks::UNDEFINED 277686944000                       # Cumulative time (in ticks) in various power states
system.mem_ctrls.avgPriority_.cpu.inst::samples      1462.00                       # Average QoS priority value for accepted requests
system.mem_ctrls.avgPriority_.cpu.data::samples      4588.00                       # Average QoS priority value for accepted requests
system.mem_ctrls.priorityMinLatency      0.000000018750                       # per QoS priority minimum request to response latency (s)
system.mem_ctrls.priorityMaxLatency      0.000000578000                       # per QoS priority maximum request to response latency (s)
system.mem_ctrls.numReadWriteTurnArounds            0                       # Number of turnarounds from READ to WRITE
system.mem_ctrls.numWriteReadTurnArounds            0                       # Number of turnarounds from WRITE to READ
system.mem_ctrls.numStayReadState               80397                       # Number of times bus staying in READ state
system.mem_ctrls.numStayWriteState                  0                       # Number of times bus staying in WRITE state
system.mem_ctrls.readReqs                        3025                       # Number of read requests accepted
system.mem_ctrls.writeReqs                          0                       # Number of write requests accepted
system.mem_ctrls.readBursts                      6050                       # Number of controller read bursts, including those serviced by the write queue
system.mem_ctrls.writeBursts                        0                       # Number of controller write bursts, including those merged in the write queue
system.mem_ctrls.servicedByWrQ                      0                       # Number of controller read bursts serviced by the write queue
system.mem_ctrls.mergedWrBursts                     0                       # Number of controller write bursts merged with an existing one
system.mem_ctrls.neitherReadNorWriteReqs            0                       # Number of requests that are neither read nor write
system.mem_ctrls.avgRdQLen                       2.00                       # Average read queue length when enqueuing
system.mem_ctrls.avgWrQLen                       0.00                       # Average write queue length when enqueuing
system.mem_ctrls.numRdRetry                         0                       # Number of times read queue was full causing retry
system.mem_ctrls.numWrRetry                         0                       # Number of times write queue was full causing retry
system.mem_ctrls.readPktSize::0                     0                       # Read request sizes (log2)
system.mem_ctrls.readPktSize::1                     0                       # Read request sizes (log2)
system.mem_ctrls.readPktSize::2                     0                       # Read request sizes (log2)
system.mem_ctrls.readPktSize::3                     0                       # Read request sizes (log2)
system.mem_ctrls.readPktSize::4                     0                       # Read request sizes (log2)
system.mem_ctrls.readPktSize::5                     0                       # Read request sizes (log2)
system.mem_ctrls.readPktSize::6                  6050                       # Read request sizes (log2)
system.mem_ctrls.readPktSize::7                     0                       # Read request sizes (log2)
system.mem_ctrls.writePktSize::0                    0                       # Write request sizes (log2)
system.mem_ctrls.writePktSize::1                    0                       # Write request sizes (log2)
system.mem_ctrls.writePktSize::2                    0                       # Write request sizes (log2)
system.mem_ctrls.writePktSize::3                    0                       # Write request sizes (log2)
system.mem_ctrls.writePktSize::4                    0                       # Write request sizes (log2)
system.mem_ctrls.writePktSize::5                    0                       # Write request sizes (log2)
system.mem_ctrls.writePktSize::6                    0                       # Write request sizes (log2)
system.mem_ctrls.writePktSize::7                    0                       # Write request sizes (log2)
system.mem_ctrls.rdQLenPdf::0                    2855                       # What read queue length does an incoming req see
system.mem_ctrls.rdQLenPdf::1                    2862                       # What read queue length does an incoming req see
system.mem_ctrls.rdQLenPdf::2                     165                       # What read queue length does an incoming req see
system.mem_ctrls.rdQLenPdf::3                     159                       # What read queue length does an incoming req see
system.mem_ctrls.rdQLenPdf::4                       5                       # What read queue length does an incoming req see
system.mem_ctrls.rdQLenPdf::5                       4                       # What read queue length does an incoming req see
system.mem_ctrls.rdQLenPdf::6                       0                       # What read queue length does an incoming req see
system.mem_ctrls.rdQLenPdf::7                       0                       # What read queue length does an incoming req see
system.mem_ctrls.rdQLenPdf::8                       0                       # What read queue length does an incoming req see
system.mem_ctrls.rdQLenPdf::9                       0                       # What read queue length does an incoming req see
system.mem_ctrls.rdQLenPdf::10                      0                       # What read queue length does an incoming req see
system.mem_ctrls.rdQLenPdf::11                      0                       # What read queue length does an incoming req see
system.mem_ctrls.rdQLenPdf::12                      0                       # What read queue length does an incoming req see
system.mem_ctrls.rdQLenPdf::13                      0                       # What read queue length does an incoming req see
[...]
system.mem_ctrls.dram.bw_read::.cpu.inst       336955                       # Total read bandwidth from this memory (bytes/s)
system.mem_ctrls.dram.bw_read::.cpu.data      1057421                       # Total read bandwidth from this memory (bytes/s)
system.mem_ctrls.dram.bw_read::total          1394376                       # Total read bandwidth from this memory (bytes/s)
system.mem_ctrls.dram.bw_inst_read::.cpu.inst       336955                       # Instruction read bandwidth from this memory (bytes/s)
system.mem_ctrls.dram.bw_inst_read::total       336955                       # Instruction read bandwidth from this memory (bytes/s)
system.mem_ctrls.dram.bw_total::.cpu.inst       336955                       # Total bandwidth to/from this memory (bytes/s)
system.mem_ctrls.dram.bw_total::.cpu.data      1057421                       # Total bandwidth to/from this memory (bytes/s)
system.mem_ctrls.dram.bw_total::total         1394376                       # Total bandwidth to/from this memory (bytes/s)
system.mem_ctrls.dram.readBursts                 6050                       # Number of DRAM read bursts
system.mem_ctrls.dram.writeBursts                   0                       # Number of DRAM write bursts
system.mem_ctrls.dram.perBankRdBursts::0          462                       # Per bank write bursts
system.mem_ctrls.dram.perBankRdBursts::1          430                       # Per bank write bursts
system.mem_ctrls.dram.perBankRdBursts::2          392                       # Per bank write bursts
system.mem_ctrls.dram.perBankRdBursts::3          350                       # Per bank write bursts
system.mem_ctrls.dram.perBankRdBursts::4          374                       # Per bank write bursts
system.mem_ctrls.dram.perBankRdBursts::5          314                       # Per bank write bursts
system.mem_ctrls.dram.perBankRdBursts::6          404                       # Per bank write bursts
system.mem_ctrls.dram.perBankRdBursts::7          390                       # Per bank write bursts
system.mem_ctrls.dram.perBankRdBursts::8          234                       # Per bank write bursts
system.mem_ctrls.dram.perBankRdBursts::9          348                       # Per bank write bursts
system.mem_ctrls.dram.perBankRdBursts::10          306                       # Per bank write bursts
system.mem_ctrls.dram.perBankRdBursts::11          372                       # Per bank write bursts
system.mem_ctrls.dram.perBankRdBursts::12          410                       # Per bank write bursts
system.mem_ctrls.dram.perBankRdBursts::13          450                       # Per bank write bursts
system.mem_ctrls.dram.perBankRdBursts::14          448                       # Per bank write bursts
system.mem_ctrls.dram.perBankRdBursts::15          366                       # Per bank write bursts
system.mem_ctrls.dram.perBankWrBursts::0            0                       # Per bank write bursts
system.mem_ctrls.dram.perBankWrBursts::1            0                       # Per bank write bursts
system.mem_ctrls.dram.perBankWrBursts::2            0                       # Per bank write bursts
system.mem_ctrls.dram.perBankWrBursts::3            0                       # Per bank write bursts
system.mem_ctrls.dram.perBankWrBursts::4            0                       # Per bank write bursts
system.mem_ctrls.dram.perBankWrBursts::5            0                       # Per bank write bursts
system.mem_ctrls.dram.perBankWrBursts::6            0                       # Per bank write bursts
system.mem_ctrls.dram.perBankWrBursts::7            0                       # Per bank write bursts
system.mem_ctrls.dram.perBankWrBursts::8            0                       # Per bank write bursts
system.mem_ctrls.dram.perBankWrBursts::9            0                       # Per bank write bursts
system.mem_ctrls.dram.perBankWrBursts::10            0                       # Per bank write bursts
system.mem_ctrls.dram.perBankWrBursts::11            0                       # Per bank write bursts
system.mem_ctrls.dram.perBankWrBursts::12            0                       # Per bank write bursts
system.mem_ctrls.dram.perBankWrBursts::13            0                       # Per bank write bursts
system.mem_ctrls.dram.perBankWrBursts::14            0                       # Per bank write bursts
system.mem_ctrls.dram.perBankWrBursts::15            0                       # Per bank write bursts
system.mem_ctrls.dram.totQLat                78249000                       # Total ticks spent queuing
system.mem_ctrls.dram.totBusLat              30250000                       # Total ticks spent in databus transfers
system.mem_ctrls.dram.totMemAccLat          191686500                       # Total ticks spent from burst creation until serviced by the DRAM
system.mem_ctrls.dram.avgQLat                12933.72                       # Average queueing delay per DRAM burst
system.mem_ctrls.dram.avgBusLat               5000.00                       # Average bus latency per DRAM burst
system.mem_ctrls.dram.avgMemAccLat           31683.72                       # Average memory access latency per DRAM burst
system.mem_ctrls.dram.readRowHits                4810                       # Number of row buffer hits during reads
system.mem_ctrls.dram.writeRowHits                  0                       # Number of row buffer hits during writes
system.mem_ctrls.dram.readRowHitRate            79.50                       # Row buffer hit rate for reads
system.mem_ctrls.dram.writeRowHitRate             nan                       # Row buffer hit rate for writes
system.mem_ctrls.dram.bytesPerActivate::samples         1240                       # Bytes accessed per row activation
system.mem_ctrls.dram.bytesPerActivate::mean   312.258065                       # Bytes accessed per row activation
system.mem_ctrls.dram.bytesPerActivate::gmean   231.818874                       # Bytes accessed per row activation
system.mem_ctrls.dram.bytesPerActivate::stdev   284.373428                       # Bytes accessed per row activation
system.mem_ctrls.dram.bytesPerActivate::128-255          611     49.27%     49.27% # Bytes accessed per row activation
system.mem_ctrls.dram.bytesPerActivate::256-383          326     26.29%     75.56% # Bytes accessed per row activation
system.mem_ctrls.dram.bytesPerActivate::384-511           73      5.89%     81.45% # Bytes accessed per row activation
system.mem_ctrls.dram.bytesPerActivate::512-639           37      2.98%     84.44% # Bytes accessed per row activation
system.mem_ctrls.dram.bytesPerActivate::640-767           29      2.34%     86.77% # Bytes accessed per row activation
system.mem_ctrls.dram.bytesPerActivate::768-895           20      1.61%     88.39% # Bytes accessed per row activation
system.mem_ctrls.dram.bytesPerActivate::896-1023           22      1.77%     90.16% # Bytes accessed per row activation
system.mem_ctrls.dram.bytesPerActivate::1024-1151          122      9.84%    100.00% # Bytes accessed per row activation
system.mem_ctrls.dram.bytesPerActivate::total         1240                       # Bytes accessed per row activation
system.mem_ctrls.dram.bytesRead                387200                       # Total number of bytes read from DRAM
system.mem_ctrls.dram.bytesWritten                  0                       # Total number of bytes written to DRAM
system.mem_ctrls.dram.avgRdBW                1.394376                       # Average DRAM read bandwidth in MiBytes/s
system.mem_ctrls.dram.avgWrBW                       0                       # Average DRAM write bandwidth in MiBytes/s
system.mem_ctrls.dram.peakBW                 12800.00                       # Theoretical peak bandwidth in MiByte/s
system.mem_ctrls.dram.busUtil                    0.01                       # Data bus utilization in percentage
system.mem_ctrls.dram.busUtilRead                0.01                       # Data bus utilization in percentage for reads
system.mem_ctrls.dram.busUtilWrite               0.00                       # Data bus utilization in percentage for writes
system.mem_ctrls.dram.pageHitRate               79.50                       # Row buffer hit rate, read and write combined
system.mem_ctrls.dram.power_state.pwrStateResidencyTicks::UNDEFINED 277686944000                       # Cumulative time (in ticks) in various power states
system.mem_ctrls.dram.rank0.actEnergy         4719540                       # Energy for activate commands per rank (pJ)
system.mem_ctrls.dram.rank0.preEnergy         2508495                       # Energy for precharge commands per rank (pJ)
system.mem_ctrls.dram.rank0.readEnergy       22248240                       # Energy for read commands per rank (pJ)
system.mem_ctrls.dram.rank0.writeEnergy             0                       # Energy for write commands per rank (pJ)
system.mem_ctrls.dram.rank0.refreshEnergy 21919906320.000004                       # Energy for refresh commands per rank (pJ)
system.mem_ctrls.dram.rank0.actBackEnergy   4797266490                       # Energy for active background per rank (pJ)
system.mem_ctrls.dram.rank0.preBackEnergy 102591983520                       # Energy for precharge background per rank (pJ)
system.mem_ctrls.dram.rank0.actPowerDownEnergy            0                       # Energy for active power-down per rank (pJ)
system.mem_ctrls.dram.rank0.prePowerDownEnergy            0                       # Energy for precharge power-down per rank (pJ)
system.mem_ctrls.dram.rank0.selfRefreshEnergy            0                       # Energy for self refresh per rank (pJ)
system.mem_ctrls.dram.rank0.totalEnergy  129338632605                       # Total energy per rank (pJ)
system.mem_ctrls.dram.rank0.averagePower   465.771385                       # Core power per rank (mW)
system.mem_ctrls.dram.rank0.totalIdleTime            0                       # Total Idle time Per DRAM Rank
system.mem_ctrls.dram.rank0.pwrStateTime::IDLE 266670542500                       # Time in different power states
system.mem_ctrls.dram.rank0.pwrStateTime::REF   9272380000                       # Time in different power states
system.mem_ctrls.dram.rank0.pwrStateTime::SREF            0                       # Time in different power states
system.mem_ctrls.dram.rank0.pwrStateTime::PRE_PDN            0                       # Time in different power states
system.mem_ctrls.dram.rank0.pwrStateTime::ACT   1744021500                       # Time in different power states
system.mem_ctrls.dram.rank0.pwrStateTime::ACT_PDN            0                       # Time in different power states
system.mem_ctrls.dram.rank1.actEnergy         4134060                       # Energy for activate commands per rank (pJ)
system.mem_ctrls.dram.rank1.preEnergy         2197305                       # Energy for precharge commands per rank (pJ)
system.mem_ctrls.dram.rank1.readEnergy       20948760                       # Energy for read commands per rank (pJ)
system.mem_ctrls.dram.rank1.writeEnergy             0                       # Energy for write commands per rank (pJ)
system.mem_ctrls.dram.rank1.refreshEnergy 21919906320.000004                       # Energy for refresh commands per rank (pJ)
system.mem_ctrls.dram.rank1.actBackEnergy   4824401910                       # Energy for active background per rank (pJ)
system.mem_ctrls.dram.rank1.preBackEnergy 102569132640                       # Energy for precharge background per rank (pJ)
system.mem_ctrls.dram.rank1.actPowerDownEnergy            0                       # Energy for active power-down per rank (pJ)
system.mem_ctrls.dram.rank1.prePowerDownEnergy            0                       # Energy for precharge power-down per rank (pJ)
system.mem_ctrls.dram.rank1.selfRefreshEnergy            0                       # Energy for self refresh per rank (pJ)
system.mem_ctrls.dram.rank1.totalEnergy  129340720995                       # Total energy per rank (pJ)
system.mem_ctrls.dram.rank1.averagePower   465.778906                       # Core power per rank (mW)
system.mem_ctrls.dram.rank1.totalIdleTime            0                       # Total Idle time Per DRAM Rank
system.mem_ctrls.dram.rank1.pwrStateTime::IDLE 266611759250                       # Time in different power states
system.mem_ctrls.dram.rank1.pwrStateTime::REF   9272380000                       # Time in different power states
system.mem_ctrls.dram.rank1.pwrStateTime::SREF            0                       # Time in different power states
system.mem_ctrls.dram.rank1.pwrStateTime::PRE_PDN            0                       # Time in different power states
system.mem_ctrls.dram.rank1.pwrStateTime::ACT   1802804750                       # Time in different power states
system.mem_ctrls.dram.rank1.pwrStateTime::ACT_PDN            0                       # Time in different power states
system.mem_ctrls.power_state.pwrStateResidencyTicks::UNDEFINED 277686944000                       # Cumulative time (in ticks) in various power states
system.membus.trans_dist::ReadResp               1168                       # Transaction distribution
system.membus.trans_dist::ReadExReq              1857                       # Transaction distribution
system.membus.trans_dist::ReadExResp             1857                       # Transaction distribution
system.membus.trans_dist::ReadSharedReq          1168                       # Transaction distribution
system.membus.pkt_count_system.l2.mem_side_port::system.mem_ctrls.port         6050                       # Packet count per connected requestor and responder (bytes)
system.membus.pkt_count::total                   6050                       # Packet count per connected requestor and responder (bytes)
system.membus.pkt_size_system.l2.mem_side_port::system.mem_ctrls.port       387200                       # Cumulative packet size per connected requestor and responder (bytes)
system.membus.pkt_size::total                  387200                       # Cumulative packet size per connected requestor and responder (bytes)
system.membus.snoops                                0                       # Total snoops (count)
system.membus.snoopTraffic                          0                       # Total snoop traffic (bytes)
system.membus.snoop_fanout::samples              3025                       # Request fanout histogram
system.membus.snoop_fanout::mean                    0                       # Request fanout histogram
system.membus.snoop_fanout::stdev                   0                       # Request fanout histogram
system.membus.snoop_fanout::underflows              0      0.00%      0.00% # Request fanout histogram
system.membus.snoop_fanout::0                    3025    100.00%    100.00% # Request fanout histogram
system.membus.snoop_fanout::1                       0      0.00%    100.00% # Request fanout histogram
system.membus.snoop_fanout::overflows               0      0.00%    100.00% # Request fanout histogram
system.membus.snoop_fanout::min_value               0                       # Request fanout histogram
system.membus.snoop_fanout::max_value               0                       # Request fanout histogram
system.membus.snoop_fanout::total                3025                       # Request fanout histogram
system.membus.power_state.pwrStateResidencyTicks::UNDEFINED 277686944000                       # Cumulative time (in ticks) in various power states
system.membus.reqLayer0.occupancy             3025000                       # Layer occupancy (ticks)
system.membus.reqLayer0.utilization               0.0                       # Layer utilization (%)
system.membus.respLayer1.occupancy           28305250                       # Layer occupancy (ticks)
system.membus.respLayer1.utilization              0.0                       # Layer utilization (%)
system.tol2bus.trans_dist::ReadResp             27498                       # Transaction distribution
system.tol2bus.trans_dist::WritebackDirty        96205                       # Transaction distribution
system.tol2bus.trans_dist::WritebackClean          120                       # Transaction distribution
system.tol2bus.trans_dist::CleanEvict            2907                       # Transaction distribution
system.tol2bus.trans_dist::ReadExReq            72903                       # Transaction distribution
system.tol2bus.trans_dist::ReadExResp           72903                       # Transaction distribution
system.tol2bus.trans_dist::ReadCleanReq           777                       # Transaction distribution
system.tol2bus.trans_dist::ReadSharedReq        26721                       # Transaction distribution
system.tol2bus.pkt_count_system.cpu.icache.mem_side_port::system.l2.cpu_side_port         1674                       # Packet count per connected requestor and responder (bytes)
system.tol2bus.pkt_count_system.cpu.dcache.mem_side_port::system.l2.cpu_side_port       298360                       # Packet count per connected requestor and responder (bytes)
system.tol2bus.pkt_count::total                300034                       # Packet count per connected requestor and responder (bytes)
system.tol2bus.pkt_size_system.cpu.icache.mem_side_port::system.l2.cpu_side_port       114816                       # Cumulative packet size per connected requestor and responder (bytes)
system.tol2bus.pkt_size_system.cpu.dcache.mem_side_port::system.l2.cpu_side_port     25066112                       # Cumulative packet size per connected requestor and responder (bytes)
system.tol2bus.pkt_size::total               25180928                       # Cumulative packet size per connected requestor and responder (bytes)
system.tol2bus.snoops                               0                       # Total snoops (count)
system.tol2bus.snoopTraffic                         0                       # Total snoop traffic (bytes)
system.tol2bus.snoop_fanout::samples           100401                       # Request fanout histogram
system.tol2bus.snoop_fanout::mean            0.016544                       # Request fanout histogram
system.tol2bus.snoop_fanout::stdev           0.127554                       # Request fanout histogram
system.tol2bus.snoop_fanout::underflows             0      0.00%      0.00% # Request fanout histogram
system.tol2bus.snoop_fanout::0                  98740     98.35%     98.35% # Request fanout histogram
system.tol2bus.snoop_fanout::1                   1661      1.65%    100.00% # Request fanout histogram
system.tol2bus.snoop_fanout::2                      0      0.00%    100.00% # Request fanout histogram
system.tol2bus.snoop_fanout::overflows              0      0.00%    100.00% # Request fanout histogram
system.tol2bus.snoop_fanout::min_value              0                       # Request fanout histogram
system.tol2bus.snoop_fanout::max_value              1                       # Request fanout histogram
system.tol2bus.snoop_fanout::total             100401                       # Request fanout histogram
system.tol2bus.power_state.pwrStateResidencyTicks::UNDEFINED 277686944000                       # Cumulative time (in ticks) in various power states
system.tol2bus.reqLayer0.occupancy         1169866000                       # Layer occupancy (ticks)
system.tol2bus.reqLayer0.utilization              0.4                       # Layer utilization (%)
system.tol2bus.respLayer0.occupancy           7773998                       # Layer occupancy (ticks)
system.tol2bus.respLayer0.utilization             0.0                       # Layer utilization (%)
system.tol2bus.respLayer1.occupancy         996271984                       # Layer occupancy (ticks)
system.tol2bus.respLayer1.utilization             0.4                       # Layer utilization (%)
system.voltage_domain.voltage                       1                       # Voltage in Volts

---------- End Simulation Statistics   ----------
