
---------- Begin Simulation Statistics ----------
final_tick                               156180726000                       # Number of ticks from beginning of simulation (restored from checkpoints and never reset)
host_inst_rate                                 286991                       # Simulator instruction rate (inst/s)
host_mem_usage                                 677180                       # Number of bytes of host memory used
host_op_rate                                   287554                       # Simulator op (including micro ops) rate (op/s)
host_seconds                                   348.44                       # Real time elapsed on the host
host_tick_rate                              448224562                       # Simulator tick rate (ticks/s)
sim_freq                                 1000000000000                       # Frequency of simulated ticks
sim_insts                                   100000001                       # Number of instructions simulated
sim_ops                                     100196356                       # Number of ops (including micro ops) simulated
sim_seconds                                  0.156181                       # Number of seconds simulated
sim_ticks                                156180726000                       # Number of ticks simulated
system.cpu.committedInsts                   100000001                       # Number of instructions committed
system.cpu.committedOps                     100196356                       # Number of ops (including micro ops) committed
system.cpu.cpi                               1.561807                       # CPI: cycles per instruction
system.cpu.discardedOps                        189348                       # Number of ops (including micro ops) which were discarded before commit
system.cpu.idleCycles                        23780358                       # Total number of cycles that the object has spent stopped
system.cpu.ipc                               0.640284                       # IPC: instructions per cycle
system.cpu.numCycles                        156180726                       # number of cpu cycles simulated
system.cpu.numFetchSuspends                         0                       # Number of times Execute suspended instruction fetching
system.cpu.numWorkItemsCompleted                    0                       # number of work items this cpu completed
system.cpu.numWorkItemsStarted                      0                       # number of work items this cpu started
system.cpu.op_class_0::No_OpClass                   0      0.00%      0.00% # Class of committed instruction
system.cpu.op_class_0::IntAlu                46526863     46.44%     46.44% # Class of committed instruction
system.cpu.op_class_0::IntMult                  20723      0.02%     46.46% # Class of committed instruction
system.cpu.op_class_0::IntDiv                       0      0.00%     46.46% # Class of committed instruction
system.cpu.op_class_0::FloatAdd                     0      0.00%     46.46% # Class of committed instruction
system.cpu.op_class_0::FloatCmp                     0      0.00%     46.46% # Class of committed instruction
system.cpu.op_class_0::FloatCvt                     0      0.00%     46.46% # Class of committed instruction
system.cpu.op_class_0::FloatMult                    0      0.00%     46.46% # Class of committed instruction
system.cpu.op_class_0::FloatMultAcc                 0      0.00%     46.46% # Class of committed instruction
system.cpu.op_class_0::FloatDiv                     0      0.00%     46.46% # Class of committed instruction
system.cpu.op_class_0::FloatMisc                    0      0.00%     46.46% # Class of committed instruction
system.cpu.op_class_0::FloatSqrt                    0      0.00%     46.46% # Class of committed instruction
system.cpu.op_class_0::SimdAdd                      0      0.00%     46.46% # Class of committed instruction
system.cpu.op_class_0::SimdAddAcc                   0      0.00%     46.46% # Class of committed instruction
system.cpu.op_class_0::SimdAlu                      0      0.00%     46.46% # Class of committed instruction
system.cpu.op_class_0::SimdCmp                      0      0.00%     46.46% # Class of committed instruction
system.cpu.op_class_0::SimdCvt                      0      0.00%     46.46% # Class of committed instruction
system.cpu.op_class_0::SimdMisc                     0      0.00%     46.46% # Class of committed instruction
system.cpu.op_class_0::SimdMult                     0      0.00%     46.46% # Class of committed instruction
system.cpu.op_class_0::SimdMultAcc                  0      0.00%     46.46% # Class of committed instruction
system.cpu.op_class_0::SimdShift                    0      0.00%     46.46% # Class of committed instruction
system.cpu.op_class_0::SimdShiftAcc                 0      0.00%     46.46% # Class of committed instruction
system.cpu.op_class_0::SimdDiv                      0      0.00%     46.46% # Class of committed instruction
system.cpu.op_class_0::SimdSqrt                     0      0.00%     46.46% # Class of committed instruction
system.cpu.op_class_0::SimdFloatAdd                 0      0.00%     46.46% # Class of committed instruction
system.cpu.op_class_0::SimdFloatAlu                 0      0.00%     46.46% # Class of committed instruction
system.cpu.op_class_0::SimdFloatCmp                 0      0.00%     46.46% # Class of committed instruction
system.cpu.op_class_0::SimdFloatCvt                 0      0.00%     46.46% # Class of committed instruction
system.cpu.op_class_0::SimdFloatDiv                 0      0.00%     46.46% # Class of committed instruction
system.cpu.op_class_0::SimdFloatMisc               18      0.00%     46.46% # Class of committed instruction
system.cpu.op_class_0::SimdFloatMult                0      0.00%     46.46% # Class of committed instruction
system.cpu.op_class_0::SimdFloatMultAcc             0      0.00%     46.46% # Class of committed instruction
system.cpu.op_class_0::SimdFloatSqrt                0      0.00%     46.46% # Class of committed instruction
system.cpu.op_class_0::SimdReduceAdd                0      0.00%     46.46% # Class of committed instruction
system.cpu.op_class_0::SimdReduceAlu                0      0.00%     46.46% # Class of committed instruction
system.cpu.op_class_0::SimdReduceCmp                0      0.00%     46.46% # Class of committed instruction
system.cpu.op_class_0::SimdFloatReduceAdd            0      0.00%     46.46% # Class of committed instruction
system.cpu.op_class_0::SimdFloatReduceCmp            0      0.00%     46.46% # Class of committed instruction
system.cpu.op_class_0::SimdAes                      0      0.00%     46.46% # Class of committed instruction
system.cpu.op_class_0::SimdAesMix                   0      0.00%     46.46% # Class of committed instruction
system.cpu.op_class_0::SimdSha1Hash                 0      0.00%     46.46% # Class of committed instruction
system.cpu.op_class_0::SimdSha1Hash2                0      0.00%     46.46% # Class of committed instruction
system.cpu.op_class_0::SimdSha256Hash               0      0.00%     46.46% # Class of committed instruction
system.cpu.op_class_0::SimdSha256Hash2              0      0.00%     46.46% # Class of committed instruction
system.cpu.op_class_0::SimdShaSigma2                0      0.00%     46.46% # Class of committed instruction
system.cpu.op_class_0::SimdShaSigma3                0      0.00%     46.46% # Class of committed instruction
system.cpu.op_class_0::SimdPredAlu                  0      0.00%     46.46% # Class of committed instruction
system.cpu.op_class_0::MemRead               42690537     42.61%     89.06% # Class of committed instruction
system.cpu.op_class_0::MemWrite              10958215     10.94%    100.00% # Class of committed instruction
system.cpu.op_class_0::FloatMemRead                 0      0.00%    100.00% # Class of committed instruction
system.cpu.op_class_0::FloatMemWrite                0      0.00%    100.00% # Class of committed instruction
system.cpu.op_class_0::IprAccess                    0      0.00%    100.00% # Class of committed instruction
system.cpu.op_class_0::InstPrefetch                 0      0.00%    100.00% # Class of committed instruction
system.cpu.op_class_0::total                100196356                       # Class of committed instruction
system.cpu.tickCycles                       132400368                       # Number of cycles that the object actually ticked
system.cpu.workload.numSyscalls                    85                       # Number of system calls
system.membus.snoop_filter.hit_multi_requests            0                       # Number of requests hitting in the snoop filter with multiple (>1) holders of the requested data.
system.membus.snoop_filter.hit_multi_snoops            0                       # Number of snoops hitting in the snoop filter with multiple (>1) holders of the requested data.
system.membus.snoop_filter.hit_single_requests       114811                       # Number of requests hitting in the snoop filter with a single holder of the requested data.
system.membus.snoop_filter.hit_single_snoops            0                       # Number of snoops hitting in the snoop filter with a single holder of the requested data.
system.membus.snoop_filter.tot_requests        295476                       # Total number of requests made to the snoop filter.
system.membus.snoop_filter.tot_snoops               0                       # Total number of snoops made to the snoop filter.
system.tol2bus.snoop_filter.hit_multi_requests           63                       # Number of requests hitting in the snoop filter with multiple (>1) holders of the requested data.
system.tol2bus.snoop_filter.hit_multi_snoops            0                       # Number of snoops hitting in the snoop filter with multiple (>1) holders of the requested data.
system.tol2bus.snoop_filter.hit_single_requests       525077                       # Number of requests hitting in the snoop filter with a single holder of the requested data.
system.tol2bus.snoop_filter.hit_single_snoops          457                       # Number of snoops hitting in the snoop filter with a single holder of the requested data.
system.tol2bus.snoop_filter.tot_requests      1052638                       # Total number of requests made to the snoop filter.
system.tol2bus.snoop_filter.tot_snoops            457                       # Total number of snoops made to the snoop filter.
system.clk_domain.clock                          1000                       # Clock period in ticks
system.cpu.branchPred.lookups                 4485874                       # Number of BP lookups
system.cpu.branchPred.condPredicted           3735573                       # Number of conditional branches predicted
system.cpu.branchPred.condIncorrect             81005                       # Number of conditional branches incorrect
system.cpu.branchPred.BTBLookups              2103794                       # Number of BTB lookups
system.cpu.branchPred.BTBHits                 2101793                       # Number of BTB hits
system.cpu.branchPred.BTBHitPct             99.904886                       # BTB Hit Percentage
system.cpu.branchPred.RASUsed                   65378                       # Number of times the RAS was used to get a target.
system.cpu.branchPred.RASIncorrect                 14                       # Number of incorrect RAS predictions.
system.cpu.branchPred.indirectLookups             691                       # Number of indirect predictor lookups.
system.cpu.branchPred.indirectHits                288                       # Number of indirect target hits.
system.cpu.branchPred.indirectMisses              403                       # Number of indirect misses.
system.cpu.branchPred.indirectMispredicted          171                       # Number of mispredicted indirect branches.
system.cpu.dcache.demand_hits::.cpu.data     51490677                       # number of demand (read+write) hits
system.cpu.dcache.demand_hits::total         51490677                       # number of demand (read+write) hits
system.cpu.dcache.overall_hits::.cpu.data     51491187                       # number of overall hits
system.cpu.dcache.overall_hits::total        51491187                       # number of overall hits
system.cpu.dcache.demand_misses::.cpu.data       571290                       # number of demand (read+write) misses
system.cpu.dcache.demand_misses::total         571290                       # number of demand (read+write) misses
system.cpu.dcache.overall_misses::.cpu.data       579199                       # number of overall misses
system.cpu.dcache.overall_misses::total        579199                       # number of overall misses
system.cpu.dcache.demand_miss_latency::.cpu.data  29219348000                       # number of demand (read+write) miss cycles
system.cpu.dcache.demand_miss_latency::total  29219348000                       # number of demand (read+write) miss cycles
system.cpu.dcache.overall_miss_latency::.cpu.data  29219348000                       # number of overall miss cycles
system.cpu.dcache.overall_miss_latency::total  29219348000                       # number of overall miss cycles
system.cpu.dcache.demand_accesses::.cpu.data     52061967                       # number of demand (read+write) accesses
system.cpu.dcache.demand_accesses::total     52061967                       # number of demand (read+write) accesses
system.cpu.dcache.overall_accesses::.cpu.data     52070386                       # number of overall (read+write) accesses
system.cpu.dcache.overall_accesses::total     52070386                       # number of overall (read+write) accesses
system.cpu.dcache.demand_miss_rate::.cpu.data     0.010973                       # miss rate for demand accesses
system.cpu.dcache.demand_miss_rate::total     0.010973                       # miss rate for demand accesses
system.cpu.dcache.overall_miss_rate::.cpu.data     0.011123                       # miss rate for overall accesses
system.cpu.dcache.overall_miss_rate::total     0.011123                       # miss rate for overall accesses
system.cpu.dcache.demand_avg_miss_latency::.cpu.data 51146.261969                       # average overall miss latency
system.cpu.dcache.demand_avg_miss_latency::total 51146.261969                       # average overall miss latency
system.cpu.dcache.overall_avg_miss_latency::.cpu.data 50447.856436                       # average overall miss latency
system.cpu.dcache.overall_avg_miss_latency::total 50447.856436                       # average overall miss latency
system.cpu.dcache.blocked_cycles::no_mshrs        95932                       # number of cycles access was blocked
system.cpu.dcache.blocked_cycles::no_targets            0                       # number of cycles access was blocked
system.cpu.dcache.blocked::no_mshrs              3446                       # number of cycles access was blocked
system.cpu.dcache.blocked::no_targets               0                       # number of cycles access was blocked
system.cpu.dcache.avg_blocked_cycles::no_mshrs    27.838654                       # average number of cycles each access was blocked
system.cpu.dcache.avg_blocked_cycles::no_targets          nan                       # average number of cycles each access was blocked
system.cpu.dcache.writebacks::.writebacks       469890                       # number of writebacks
system.cpu.dcache.writebacks::total            469890                       # number of writebacks
system.cpu.dcache.demand_mshr_hits::.cpu.data        52405                       # number of demand (read+write) MSHR hits
system.cpu.dcache.demand_mshr_hits::total        52405                       # number of demand (read+write) MSHR hits
system.cpu.dcache.overall_mshr_hits::.cpu.data        52405                       # number of overall MSHR hits
system.cpu.dcache.overall_mshr_hits::total        52405                       # number of overall MSHR hits
system.cpu.dcache.demand_mshr_misses::.cpu.data       518885                       # number of demand (read+write) MSHR misses
system.cpu.dcache.demand_mshr_misses::total       518885                       # number of demand (read+write) MSHR misses
system.cpu.dcache.overall_mshr_misses::.cpu.data       526790                       # number of overall MSHR misses
system.cpu.dcache.overall_mshr_misses::total       526790                       # number of overall MSHR misses
system.cpu.dcache.demand_mshr_miss_latency::.cpu.data  26543010000                       # number of demand (read+write) MSHR miss cycles
system.cpu.dcache.demand_mshr_miss_latency::total  26543010000                       # number of demand (read+write) MSHR miss cycles
system.cpu.dcache.overall_mshr_miss_latency::.cpu.data  27358817999                       # number of overall MSHR miss cycles
system.cpu.dcache.overall_mshr_miss_latency::total  27358817999                       # number of overall MSHR miss cycles
system.cpu.dcache.demand_mshr_miss_rate::.cpu.data     0.009967                       # mshr miss rate for demand accesses
system.cpu.dcache.demand_mshr_miss_rate::total     0.009967                       # mshr miss rate for demand accesses
system.cpu.dcache.overall_mshr_miss_rate::.cpu.data     0.010117                       # mshr miss rate for overall accesses
system.cpu.dcache.overall_mshr_miss_rate::total     0.010117                       # mshr miss rate for overall accesses
system.cpu.dcache.demand_avg_mshr_miss_latency::.cpu.data 51153.935843                       # average overall mshr miss latency
system.cpu.dcache.demand_avg_mshr_miss_latency::total 51153.935843                       # average overall mshr miss latency
system.cpu.dcache.overall_avg_mshr_miss_latency::.cpu.data 51934.960798                       # average overall mshr miss latency
system.cpu.dcache.overall_avg_mshr_miss_latency::total 51934.960798                       # average overall mshr miss latency
system.cpu.dcache.replacements                 524742                       # number of replacements
system.cpu.dcache.ReadReq_hits::.cpu.data     40836967                       # number of ReadReq hits
system.cpu.dcache.ReadReq_hits::total        40836967                       # number of ReadReq hits
system.cpu.dcache.ReadReq_misses::.cpu.data       275918                       # number of ReadReq misses
system.cpu.dcache.ReadReq_misses::total        275918                       # number of ReadReq misses
system.cpu.dcache.ReadReq_miss_latency::.cpu.data  10548135000                       # number of ReadReq miss cycles
system.cpu.dcache.ReadReq_miss_latency::total  10548135000                       # number of ReadReq miss cycles
system.cpu.dcache.ReadReq_accesses::.cpu.data     41112885                       # number of ReadReq accesses(hits+misses)
system.cpu.dcache.ReadReq_accesses::total     41112885                       # number of ReadReq accesses(hits+misses)
system.cpu.dcache.ReadReq_miss_rate::.cpu.data     0.006711                       # miss rate for ReadReq accesses
system.cpu.dcache.ReadReq_miss_rate::total     0.006711                       # miss rate for ReadReq accesses
system.cpu.dcache.ReadReq_avg_miss_latency::.cpu.data 38229.238397                       # average ReadReq miss latency
system.cpu.dcache.ReadReq_avg_miss_latency::total 38229.238397                       # average ReadReq miss latency
system.cpu.dcache.ReadReq_mshr_hits::.cpu.data          538                       # number of ReadReq MSHR hits
system.cpu.dcache.ReadReq_mshr_hits::total          538                       # number of ReadReq MSHR hits
system.cpu.dcache.ReadReq_mshr_misses::.cpu.data       275380                       # number of ReadReq MSHR misses
system.cpu.dcache.ReadReq_mshr_misses::total       275380                       # number of ReadReq MSHR misses
system.cpu.dcache.ReadReq_mshr_miss_latency::.cpu.data   9979129000                       # number of ReadReq MSHR miss cycles
system.cpu.dcache.ReadReq_mshr_miss_latency::total   9979129000                       # number of ReadReq MSHR miss cycles
system.cpu.dcache.ReadReq_mshr_miss_rate::.cpu.data     0.006698                       # mshr miss rate for ReadReq accesses
system.cpu.dcache.ReadReq_mshr_miss_rate::total     0.006698                       # mshr miss rate for ReadReq accesses
system.cpu.dcache.ReadReq_avg_mshr_miss_latency::.cpu.data 36237.667950                       # average ReadReq mshr miss latency
system.cpu.dcache.ReadReq_avg_mshr_miss_latency::total 36237.667950                       # average ReadReq mshr miss latency
system.cpu.dcache.WriteReq_hits::.cpu.data     10653710                       # number of WriteReq hits
system.cpu.dcache.WriteReq_hits::total       10653710                       # number of WriteReq hits
system.cpu.dcache.WriteReq_misses::.cpu.data       295372                       # number of WriteReq misses
system.cpu.dcache.WriteReq_misses::total       295372                       # number of WriteReq misses
system.cpu.dcache.WriteReq_miss_latency::.cpu.data  18671213000                       # number of WriteReq miss cycles
system.cpu.dcache.WriteReq_miss_latency::total  18671213000                       # number of WriteReq miss cycles
system.cpu.dcache.WriteReq_accesses::.cpu.data     10949082                       # number of WriteReq accesses(hits+misses)
system.cpu.dcache.WriteReq_accesses::total     10949082                       # number of WriteReq accesses(hits+misses)
system.cpu.dcache.WriteReq_miss_rate::.cpu.data     0.026977                       # miss rate for WriteReq accesses
system.cpu.dcache.WriteReq_miss_rate::total     0.026977                       # miss rate for WriteReq accesses
system.cpu.dcache.WriteReq_avg_miss_latency::.cpu.data 63212.535379                       # average WriteReq miss latency
system.cpu.dcache.WriteReq_avg_miss_latency::total 63212.535379                       # average WriteReq miss latency
system.cpu.dcache.WriteReq_mshr_hits::.cpu.data        51867                       # number of WriteReq MSHR hits
system.cpu.dcache.WriteReq_mshr_hits::total        51867                       # number of WriteReq MSHR hits
system.cpu.dcache.WriteReq_mshr_misses::.cpu.data       243505                       # number of WriteReq MSHR misses
system.cpu.dcache.WriteReq_mshr_misses::total       243505                       # number of WriteReq MSHR misses
system.cpu.dcache.WriteReq_mshr_miss_latency::.cpu.data  16563881000                       # number of WriteReq MSHR miss cycles
system.cpu.dcache.WriteReq_mshr_miss_latency::total  16563881000                       # number of WriteReq MSHR miss cycles
system.cpu.dcache.WriteReq_mshr_miss_rate::.cpu.data     0.022240                       # mshr miss rate for WriteReq accesses
system.cpu.dcache.WriteReq_mshr_miss_rate::total     0.022240                       # mshr miss rate for WriteReq accesses
system.cpu.dcache.WriteReq_avg_mshr_miss_latency::.cpu.data 68022.755180                       # average WriteReq mshr miss latency
system.cpu.dcache.WriteReq_avg_mshr_miss_latency::total 68022.755180                       # average WriteReq mshr miss latency
system.cpu.dcache.SoftPFReq_hits::.cpu.data          510                       # number of SoftPFReq hits
system.cpu.dcache.SoftPFReq_hits::total           510                       # number of SoftPFReq hits
system.cpu.dcache.SoftPFReq_misses::.cpu.data         7909                       # number of SoftPFReq misses
system.cpu.dcache.SoftPFReq_misses::total         7909                       # number of SoftPFReq misses
system.cpu.dcache.SoftPFReq_accesses::.cpu.data         8419                       # number of SoftPFReq accesses(hits+misses)
system.cpu.dcache.SoftPFReq_accesses::total         8419                       # number of SoftPFReq accesses(hits+misses)
system.cpu.dcache.SoftPFReq_miss_rate::.cpu.data     0.939423                       # miss rate for SoftPFReq accesses
system.cpu.dcache.SoftPFReq_miss_rate::total     0.939423                       # miss rate for SoftPFReq accesses
system.cpu.dcache.SoftPFReq_mshr_misses::.cpu.data         7905                       # number of SoftPFReq MSHR misses
system.cpu.dcache.SoftPFReq_mshr_misses::total         7905                       # number of SoftPFReq MSHR misses
system.cpu.dcache.SoftPFReq_mshr_miss_latency::.cpu.data    815807999                       # number of SoftPFReq MSHR miss cycles
system.cpu.dcache.SoftPFReq_mshr_miss_latency::total    815807999                       # number of SoftPFReq MSHR miss cycles
system.cpu.dcache.SoftPFReq_mshr_miss_rate::.cpu.data     0.938948                       # mshr miss rate for SoftPFReq accesses
system.cpu.dcache.SoftPFReq_mshr_miss_rate::total     0.938948                       # mshr miss rate for SoftPFReq accesses
system.cpu.dcache.SoftPFReq_avg_mshr_miss_latency::.cpu.data 103201.517900                       # average SoftPFReq mshr miss latency
system.cpu.dcache.SoftPFReq_avg_mshr_miss_latency::total 103201.517900                       # average SoftPFReq mshr miss latency
system.cpu.dcache.LoadLockedReq_hits::.cpu.data           38                       # number of LoadLockedReq hits
system.cpu.dcache.LoadLockedReq_hits::total           38                       # number of LoadLockedReq hits
system.cpu.dcache.LoadLockedReq_accesses::.cpu.data           38                       # number of LoadLockedReq accesses(hits+misses)
system.cpu.dcache.LoadLockedReq_accesses::total           38                       # number of LoadLockedReq accesses(hits+misses)
system.cpu.dcache.StoreCondReq_hits::.cpu.data           38                       # number of StoreCondReq hits
system.cpu.dcache.StoreCondReq_hits::total           38                       # number of StoreCondReq hits
system.cpu.dcache.StoreCondReq_accesses::.cpu.data           38                       # number of StoreCondReq accesses(hits+misses)
system.cpu.dcache.StoreCondReq_accesses::total           38                       # number of StoreCondReq accesses(hits+misses)
system.cpu.dcache.power_state.pwrStateResidencyTicks::UNDEFINED 156180726000                       # Cumulative time (in ticks) in various power states
system.cpu.dcache.tags.tagsinuse          2022.154662                       # Cycle average of tags in use
system.cpu.dcache.tags.total_refs            52018053                       # Total number of references to valid blocks.
system.cpu.dcache.tags.sampled_refs            526790                       # Sample count of references to valid blocks.
system.cpu.dcache.tags.avg_refs             98.745331                       # Average number of references to valid blocks.
system.cpu.dcache.tags.warmup_cycle            223000                       # Cycle when the warmup percentage was hit.
system.cpu.dcache.tags.occ_blocks::.cpu.data  2022.154662                       # Average occupied blocks per requestor
system.cpu.dcache.tags.occ_percent::.cpu.data     0.987380                       # Average percentage of cache occupancy
system.cpu.dcache.tags.occ_percent::total     0.987380                       # Average percentage of cache occupancy
system.cpu.dcache.tags.occ_task_id_blocks::1024         2048                       # Occupied blocks per task id
system.cpu.dcache.tags.age_task_id_blocks_1024::0          128                       # Occupied blocks per task id
system.cpu.dcache.tags.age_task_id_blocks_1024::1          230                       # Occupied blocks per task id
system.cpu.dcache.tags.age_task_id_blocks_1024::2         1485                       # Occupied blocks per task id
system.cpu.dcache.tags.age_task_id_blocks_1024::3          204                       # Occupied blocks per task id
system.cpu.dcache.tags.age_task_id_blocks_1024::4            1                       # Occupied blocks per task id
system.cpu.dcache.tags.occ_task_id_percent::1024            1                       # Percentage of cache occupancy per task id
system.cpu.dcache.tags.tag_accesses         104667714                       # Number of tag accesses
system.cpu.dcache.tags.data_accesses        104667714                       # Number of data accesses
system.cpu.dcache.tags.power_state.pwrStateResidencyTicks::UNDEFINED 156180726000                       # Cumulative time (in ticks) in various power states
system.cpu.dtb.instHits                             0                       # ITB inst hits
system.cpu.dtb.instMisses                           0                       # ITB inst misses
system.cpu.dtb.readHits                             0                       # DTB read hits
system.cpu.dtb.readMisses                           0                       # DTB read misses
system.cpu.dtb.writeHits                            0                       # DTB write hits
system.cpu.dtb.writeMisses                          0                       # DTB write misses
system.cpu.dtb.inserts                              0                       # Number of times an entry is inserted into the TLB
system.cpu.dtb.flushTlb                             0                       # Number of times complete TLB was flushed
system.cpu.dtb.flushTlbMva                          0                       # Number of times TLB was flushed by MVA
system.cpu.dtb.flushTlbMvaAsid                      0                       # Number of times TLB was flushed by MVA & ASID
system.cpu.dtb.flushTlbAsid                         0                       # Number of times TLB was flushed by ASID
system.cpu.dtb.flushedEntries                       0                       # Number of entries that have been flushed from TLB
system.cpu.dtb.alignFaults                          0                       # Number of TLB faults due to alignment restrictions
system.cpu.dtb.prefetchFaults                       0                       # Number of TLB faults due to prefetch
system.cpu.dtb.domainFaults                         0                       # Number of TLB faults due to domain restrictions
system.cpu.dtb.permsFaults                          0                       # Number of TLB faults due to permissions restrictions
system.cpu.dtb.readAccesses                         0                       # DTB read accesses
system.cpu.dtb.writeAccesses                        0                       # DTB write accesses
system.cpu.dtb.instAccesses                         0                       # ITB inst accesses
system.cpu.dtb.hits                                 0                       # Total TLB (inst and data) hits
system.cpu.dtb.misses                               0                       # Total TLB (inst and data) misses
system.cpu.dtb.accesses                             0                       # Total TLB (inst and data) accesses
system.cpu.dtb.stage2_mmu.stage2_tlb.instHits            0                       # ITB inst hits
system.cpu.dtb.stage2_mmu.stage2_tlb.instMisses            0                       # ITB inst misses
system.cpu.dtb.stage2_mmu.stage2_tlb.readHits            0                       # DTB read hits
system.cpu.dtb.stage2_mmu.stage2_tlb.readMisses            0                       # DTB read misses
system.cpu.dtb.stage2_mmu.stage2_tlb.writeHits            0                       # DTB write hits
system.cpu.dtb.stage2_mmu.stage2_tlb.writeMisses            0                       # DTB write misses
system.cpu.dtb.stage2_mmu.stage2_tlb.inserts            0                       # Number of times an entry is inserted into the TLB
system.cpu.dtb.stage2_mmu.stage2_tlb.flushTlb            0                       # Number of times complete TLB was flushed
system.cpu.dtb.stage2_mmu.stage2_tlb.flushTlbMva            0                       # Number of times TLB was flushed by MVA
system.cpu.dtb.stage2_mmu.stage2_tlb.flushTlbMvaAsid            0                       # Number of times TLB was flushed by MVA & ASID
system.cpu.dtb.stage2_mmu.stage2_tlb.flushTlbAsid            0                       # Number of times TLB was flushed by ASID
system.cpu.dtb.stage2_mmu.stage2_tlb.flushedEntries            0                       # Number of entries that have been flushed from TLB
system.cpu.dtb.stage2_mmu.stage2_tlb.alignFaults            0                       # Number of TLB faults due to alignment restrictions
system.cpu.dtb.stage2_mmu.stage2_tlb.prefetchFaults            0                       # Number of TLB faults due to prefetch
system.cpu.dtb.stage2_mmu.stage2_tlb.domainFaults            0                       # Number of TLB faults due to domain restrictions
system.cpu.dtb.stage2_mmu.stage2_tlb.permsFaults            0                       # Number of TLB faults due to permissions restrictions
system.cpu.dtb.stage2_mmu.stage2_tlb.readAccesses            0                       # DTB read accesses
system.cpu.dtb.stage2_mmu.stage2_tlb.writeAccesses            0                       # DTB write accesses
system.cpu.dtb.stage2_mmu.stage2_tlb.instAccesses            0                       # ITB inst accesses
system.cpu.dtb.stage2_mmu.stage2_tlb.hits            0                       # Total TLB (inst and data) hits
system.cpu.dtb.stage2_mmu.stage2_tlb.misses            0                       # Total TLB (inst and data) misses
system.cpu.dtb.stage2_mmu.stage2_tlb.accesses            0                       # Total TLB (inst and data) accesses
system.cpu.dtb.stage2_mmu.stage2_tlb.walker.walks            0                       # Table walker walks requested
system.cpu.dtb.stage2_mmu.stage2_tlb.walker.requestOrigin_Requested::Data            0                       # Table walker requests started/completed, data/inst
system.cpu.dtb.stage2_mmu.stage2_tlb.walker.requestOrigin_Requested::Inst            0                       # Table walker requests started/completed, data/inst
system.cpu.dtb.stage2_mmu.stage2_tlb.walker.requestOrigin_Requested::total            0                       # Table walker requests started/completed, data/inst
system.cpu.dtb.stage2_mmu.stage2_tlb.walker.requestOrigin_Completed::Data            0                       # Table walker requests started/completed, data/inst
system.cpu.dtb.stage2_mmu.stage2_tlb.walker.requestOrigin_Completed::Inst            0                       # Table walker requests started/completed, data/inst
system.cpu.dtb.stage2_mmu.stage2_tlb.walker.requestOrigin_Completed::total            0                       # Table walker requests started/completed, data/inst
system.cpu.dtb.stage2_mmu.stage2_tlb.walker.requestOrigin::total            0                       # Table walker requests started/completed, data/inst
system.cpu.dtb.stage2_mmu.stage2_tlb.walker.power_state.pwrStateResidencyTicks::UNDEFINED 156180726000                       # Cumulative time (in ticks) in various power states
system.cpu.dtb.walker.walks                         0                       # Table walker walks requested
system.cpu.dtb.walker.requestOrigin_Requested::Data            0                       # Table walker requests started/completed, data/inst
system.cpu.dtb.walker.requestOrigin_Requested::Inst            0                       # Table walker requests started/completed, data/inst
system.cpu.dtb.walker.requestOrigin_Requested::total            0                       # Table walker requests started/completed, data/inst
system.cpu.dtb.walker.requestOrigin_Completed::Data            0                       # Table walker requests started/completed, data/inst
system.cpu.dtb.walker.requestOrigin_Completed::Inst            0                       # Table walker requests started/completed, data/inst
system.cpu.dtb.walker.requestOrigin_Completed::total            0                       # Table walker requests started/completed, data/inst
system.cpu.dtb.walker.requestOrigin::total            0                       # Table walker requests started/completed, data/inst
system.cpu.dtb.walker.power_state.pwrStateResidencyTicks::UNDEFINED 156180726000                       # Cumulative time (in ticks) in various power states
system.cpu.fetch2.intInstructions            42685656                       # Number of integer instructions successfully decoded
system.cpu.fetch2.fpInstructions                    0                       # Number of floating point instructions successfully decoded
system.cpu.fetch2.vecInstructions                   0                       # Number of SIMD instructions successfully decoded
system.cpu.fetch2.loadInstructions           43474827                       # Number of memory load instructions successfully decoded
system.cpu.fetch2.storeInstructions          11024755                       # Number of memory store instructions successfully decoded
system.cpu.fetch2.amoInstructions                   0                       # Number of memory atomic instructions successfully decoded
system.cpu.icache.demand_hits::.cpu.inst     10277642                       # number of demand (read+write) hits
system.cpu.icache.demand_hits::total         10277642                       # number of demand (read+write) hits
system.cpu.icache.overall_hits::.cpu.inst     10277642                       # number of overall hits
system.cpu.icache.overall_hits::total        10277642                       # number of overall hits
system.cpu.icache.demand_misses::.cpu.inst          773                       # number of demand (read+write) misses
system.cpu.icache.demand_misses::total            773                       # number of demand (read+write) misses
system.cpu.icache.overall_misses::.cpu.inst          773                       # number of overall misses
system.cpu.icache.overall_misses::total           773                       # number of overall misses
system.cpu.icache.demand_miss_latency::.cpu.inst     72566000                       # number of demand (read+write) miss cycles
system.cpu.icache.demand_miss_latency::total     72566000                       # number of demand (read+write) miss cycles
system.cpu.icache.overall_miss_latency::.cpu.inst     72566000                       # number of overall miss cycles
system.cpu.icache.overall_miss_latency::total     72566000                       # number of overall miss cycles
system.cpu.icache.demand_accesses::.cpu.inst     10278415                       # number of demand (read+write) accesses
system.cpu.icache.demand_accesses::total     10278415                       # number of demand (read+write) accesses
system.cpu.icache.overall_accesses::.cpu.inst     10278415                       # number of overall (read+write) accesses
system.cpu.icache.overall_accesses::total     10278415                       # number of overall (read+write) accesses
system.cpu.icache.demand_miss_rate::.cpu.inst     0.000075                       # miss rate for demand accesses
system.cpu.icache.demand_miss_rate::total     0.000075                       # miss rate for demand accesses
system.cpu.icache.overall_miss_rate::.cpu.inst     0.000075                       # miss rate for overall accesses
system.cpu.icache.overall_miss_rate::total     0.000075                       # miss rate for overall accesses
system.cpu.icache.demand_avg_miss_latency::.cpu.inst 93875.808538                       # average overall miss latency
system.cpu.icache.demand_avg_miss_latency::total 93875.808538                       # average overall miss latency
system.cpu.icache.overall_avg_miss_latency::.cpu.inst 93875.808538                       # average overall miss latency
system.cpu.icache.overall_avg_miss_latency::total 93875.808538                       # average overall miss latency
system.cpu.icache.blocked_cycles::no_mshrs            0                       # number of cycles access was blocked
system.cpu.icache.blocked_cycles::no_targets            0                       # number of cycles access was blocked
system.cpu.icache.blocked::no_mshrs                 0                       # number of cycles access was blocked
system.cpu.icache.blocked::no_targets               0                       # number of cycles access was blocked
system.cpu.icache.avg_blocked_cycles::no_mshrs          nan                       # average number of cycles each access was blocked
system.cpu.icache.avg_blocked_cycles::no_targets          nan                       # average number of cycles each access was blocked
system.cpu.icache.writebacks::.writebacks          333                       # number of writebacks
system.cpu.icache.writebacks::total               333                       # number of writebacks
system.cpu.icache.demand_mshr_misses::.cpu.inst          773                       # number of demand (read+write) MSHR misses
system.cpu.icache.demand_mshr_misses::total          773                       # number of demand (read+write) MSHR misses
system.cpu.icache.overall_mshr_misses::.cpu.inst          773                       # number of overall MSHR misses
system.cpu.icache.overall_mshr_misses::total          773                       # number of overall MSHR misses
system.cpu.icache.demand_mshr_miss_latency::.cpu.inst     71020000                       # number of demand (read+write) MSHR miss cycles
system.cpu.icache.demand_mshr_miss_latency::total     71020000                       # number of demand (read+write) MSHR miss cycles
system.cpu.icache.overall_mshr_miss_latency::.cpu.inst     71020000                       # number of overall MSHR miss cycles
system.cpu.icache.overall_mshr_miss_latency::total     71020000                       # number of overall MSHR miss cycles
system.cpu.icache.demand_mshr_miss_rate::.cpu.inst     0.000075                       # mshr miss rate for demand accesses
system.cpu.icache.demand_mshr_miss_rate::total     0.000075                       # mshr miss rate for demand accesses
system.cpu.icache.overall_mshr_miss_rate::.cpu.inst     0.000075                       # mshr miss rate for overall accesses
system.cpu.icache.overall_mshr_miss_rate::total     0.000075                       # mshr miss rate for overall accesses
system.cpu.icache.demand_avg_mshr_miss_latency::.cpu.inst 91875.808538                       # average overall mshr miss latency
system.cpu.icache.demand_avg_mshr_miss_latency::total 91875.808538                       # average overall mshr miss latency
system.cpu.icache.overall_avg_mshr_miss_latency::.cpu.inst 91875.808538                       # average overall mshr miss latency
system.cpu.icache.overall_avg_mshr_miss_latency::total 91875.808538                       # average overall mshr miss latency
system.cpu.icache.replacements                    333                       # number of replacements
system.cpu.icache.ReadReq_hits::.cpu.inst     10277642                       # number of ReadReq hits
system.cpu.icache.ReadReq_hits::total        10277642                       # number of ReadReq hits
system.cpu.icache.ReadReq_misses::.cpu.inst          773                       # number of ReadReq misses
system.cpu.icache.ReadReq_misses::total           773                       # number of ReadReq misses
system.cpu.icache.ReadReq_miss_latency::.cpu.inst     72566000                       # number of ReadReq miss cycles
system.cpu.icache.ReadReq_miss_latency::total     72566000                       # number of ReadReq miss cycles
system.cpu.icache.ReadReq_accesses::.cpu.inst     10278415                       # number of ReadReq accesses(hits+misses)
system.cpu.icache.ReadReq_accesses::total     10278415                       # number of ReadReq accesses(hits+misses)
system.cpu.icache.ReadReq_miss_rate::.cpu.inst     0.000075                       # miss rate for ReadReq accesses
system.cpu.icache.ReadReq_miss_rate::total     0.000075                       # miss rate for ReadReq accesses
system.cpu.icache.ReadReq_avg_miss_latency::.cpu.inst 93875.808538                       # average ReadReq miss latency
system.cpu.icache.ReadReq_avg_miss_latency::total 93875.808538                       # average ReadReq miss latency
system.cpu.icache.ReadReq_mshr_misses::.cpu.inst          773                       # number of ReadReq MSHR misses
system.cpu.icache.ReadReq_mshr_misses::total          773                       # number of ReadReq MSHR misses
system.cpu.icache.ReadReq_mshr_miss_latency::.cpu.inst     71020000                       # number of ReadReq MSHR miss cycles
system.cpu.icache.ReadReq_mshr_miss_latency::total     71020000                       # number of ReadReq MSHR miss cycles
system.cpu.icache.ReadReq_mshr_miss_rate::.cpu.inst     0.000075                       # mshr miss rate for ReadReq accesses
system.cpu.icache.ReadReq_mshr_miss_rate::total     0.000075                       # mshr miss rate for ReadReq accesses
system.cpu.icache.ReadReq_avg_mshr_miss_latency::.cpu.inst 91875.808538                       # average ReadReq mshr miss latency
system.cpu.icache.ReadReq_avg_mshr_miss_latency::total 91875.808538                       # average ReadReq mshr miss latency
system.cpu.icache.power_state.pwrStateResidencyTicks::UNDEFINED 156180726000                       # Cumulative time (in ticks) in various power states
system.cpu.icache.tags.tagsinuse           356.691730                       # Cycle average of tags in use
system.cpu.icache.tags.total_refs            10278415                       # Total number of references to valid blocks.
system.cpu.icache.tags.sampled_refs               773                       # Sample count of references to valid blocks.
system.cpu.icache.tags.avg_refs          13296.785252                       # Average number of references to valid blocks.
system.cpu.icache.tags.warmup_cycle            108000                       # Cycle when the warmup percentage was hit.
system.cpu.icache.tags.occ_blocks::.cpu.inst   356.691730                       # Average occupied blocks per requestor
system.cpu.icache.tags.occ_percent::.cpu.inst     0.696664                       # Average percentage of cache occupancy
system.cpu.icache.tags.occ_percent::total     0.696664                       # Average percentage of cache occupancy
system.cpu.icache.tags.occ_task_id_blocks::1024          440                       # Occupied blocks per task id
system.cpu.icache.tags.age_task_id_blocks_1024::4          440                       # Occupied blocks per task id
system.cpu.icache.tags.occ_task_id_percent::1024     0.859375                       # Percentage of cache occupancy per task id
system.cpu.icache.tags.tag_accesses          20557603                       # Number of tag accesses
system.cpu.icache.tags.data_accesses         20557603                       # Number of data accesses
system.cpu.icache.tags.power_state.pwrStateResidencyTicks::UNDEFINED 156180726000                       # Cumulative time (in ticks) in various power states
system.cpu.itb.instHits                             0                       # ITB inst hits
system.cpu.itb.instMisses                           0                       # ITB inst misses
system.cpu.itb.readHits                             0                       # DTB read hits
system.cpu.itb.readMisses                           0                       # DTB read misses
system.cpu.itb.writeHits                            0                       # DTB write hits
system.cpu.itb.writeMisses                          0                       # DTB write misses
system.cpu.itb.inserts                              0                       # Number of times an entry is inserted into the TLB
system.cpu.itb.flushTlb                             0                       # Number of times complete TLB was flushed
system.cpu.itb.flushTlbMva                          0                       # Number of times TLB was flushed by MVA
system.cpu.itb.flushTlbMvaAsid                      0                       # Number of times TLB was flushed by MVA & ASID
system.cpu.itb.flushTlbAsid                         0                       # Number of times TLB was flushed by ASID
system.cpu.itb.flushedEntries                       0                       # Number of entries that have been flushed from TLB
system.cpu.itb.alignFaults                          0                       # Number of TLB faults due to alignment restrictions
system.cpu.itb.prefetchFaults                       0                       # Number of TLB faults due to prefetch
system.cpu.itb.domainFaults                         0                       # Number of TLB faults due to domain restrictions
system.cpu.itb.permsFaults                          0                       # Number of TLB faults due to permissions restrictions
system.cpu.itb.readAccesses                         0                       # DTB read accesses
system.cpu.itb.writeAccesses                        0                       # DTB write accesses
system.cpu.itb.instAccesses                         0                       # ITB inst accesses
system.cpu.itb.hits                                 0                       # Total TLB (inst and data) hits
system.cpu.itb.misses                               0                       # Total TLB (inst and data) misses
system.cpu.itb.accesses                             0                       # Total TLB (inst and data) accesses
system.cpu.itb.stage2_mmu.stage2_tlb.instHits            0                       # ITB inst hits
system.cpu.itb.stage2_mmu.stage2_tlb.instMisses            0                       # ITB inst misses
system.cpu.itb.stage2_mmu.stage2_tlb.readHits            0                       # DTB read hits
system.cpu.itb.stage2_mmu.stage2_tlb.readMisses            0                       # DTB read misses
system.cpu.itb.stage2_mmu.stage2_tlb.writeHits            0                       # DTB write hits
system.cpu.itb.stage2_mmu.stage2_tlb.writeMisses            0                       # DTB write misses
system.cpu.itb.stage2_mmu.stage2_tlb.inserts            0                       # Number of times an entry is inserted into the TLB
system.cpu.itb.stage2_mmu.stage2_tlb.flushTlb            0                       # Number of times complete TLB was flushed
system.cpu.itb.stage2_mmu.stage2_tlb.flushTlbMva            0                       # Number of times TLB was flushed by MVA
system.cpu.itb.stage2_mmu.stage2_tlb.flushTlbMvaAsid            0                       # Number of times TLB was flushed by MVA & ASID
system.cpu.itb.stage2_mmu.stage2_tlb.flushTlbAsid            0                       # Number of times TLB was flushed by ASID
system.cpu.itb.stage2_mmu.stage2_tlb.flushedEntries            0                       # Number of entries that have been flushed from TLB
system.cpu.itb.stage2_mmu.stage2_tlb.alignFaults            0                       # Number of TLB faults due to alignment restrictions
system.cpu.itb.stage2_mmu.stage2_tlb.prefetchFaults            0                       # Number of TLB faults due to prefetch
system.cpu.itb.stage2_mmu.stage2_tlb.domainFaults            0                       # Number of TLB faults due to domain restrictions
system.cpu.itb.stage2_mmu.stage2_tlb.permsFaults            0                       # Number of TLB faults due to permissions restrictions
system.cpu.itb.stage2_mmu.stage2_tlb.readAccesses            0                       # DTB read accesses
system.cpu.itb.stage2_mmu.stage2_tlb.writeAccesses            0                       # DTB write accesses
system.cpu.itb.stage2_mmu.stage2_tlb.instAccesses            0                       # ITB inst accesses
system.cpu.itb.stage2_mmu.stage2_tlb.hits            0                       # Total TLB (inst and data) hits
system.cpu.itb.stage2_mmu.stage2_tlb.misses            0                       # Total TLB (inst and data) misses
system.cpu.itb.stage2_mmu.stage2_tlb.accesses            0                       # Total TLB (inst and data) accesses
system.cpu.itb.stage2_mmu.stage2_tlb.walker.walks            0                       # Table walker walks requested
system.cpu.itb.stage2_mmu.stage2_tlb.walker.requestOrigin_Requested::Data            0                       # Table walker requests started/completed, data/inst
system.cpu.itb.stage2_mmu.stage2_tlb.walker.requestOrigin_Requested::Inst            0                       # Table walker requests started/completed, data/inst
system.cpu.itb.stage2_mmu.stage2_tlb.walker.requestOrigin_Requested::total            0                       # Table walker requests started/completed, data/inst
system.cpu.itb.stage2_mmu.stage2_tlb.walker.requestOrigin_Completed::Data            0                       # Table walker requests started/completed, data/inst
system.cpu.itb.stage2_mmu.stage2_tlb.walker.requestOrigin_Completed::Inst            0                       # Table walker requests started/completed, data/inst
system.cpu.itb.stage2_mmu.stage2_tlb.walker.requestOrigin_Completed::total            0                       # Table walker requests started/completed, data/inst
system.cpu.itb.stage2_mmu.stage2_tlb.walker.requestOrigin::total            0                       # Table walker requests started/completed, data/inst
system.cpu.itb.stage2_mmu.stage2_tlb.walker.power_state.pwrStateResidencyTicks::UNDEFINED 156180726000                       # Cumulative time (in ticks) in various power states
system.cpu.itb.walker.walks                         0                       # Table walker walks requested
system.cpu.itb.walker.requestOrigin_Requested::Data            0                       # Table walker requests started/completed, data/inst
system.cpu.itb.walker.requestOrigin_Requested::Inst            0                       # Table walker requests started/completed, data/inst
system.cpu.itb.walker.requestOrigin_Requested::total            0                       # Table walker requests started/completed, data/inst
system.cpu.itb.walker.requestOrigin_Completed::Data            0                       # Table walker requests started/completed, data/inst
system.cpu.itb.walker.requestOrigin_Completed::Inst            0                       # Table walker requests started/completed, data/inst
system.cpu.itb.walker.requestOrigin_Completed::total            0                       # Table walker requests started/completed, data/inst
system.cpu.itb.walker.requestOrigin::total            0                       # Table walker requests started/completed, data/inst
system.cpu.itb.walker.power_state.pwrStateResidencyTicks::UNDEFINED 156180726000                       # Cumulative time (in ticks) in various power states
system.cpu.power_state.pwrStateResidencyTicks::ON 156180726000                       # Cumulative time (in ticks) in various power states
system.cpu.thread17522.numInsts             100000001                       # Number of Instructions committed
system.cpu.thread17522.numOps               100196356                       # Number of Ops committed
system.cpu.thread17522.numMemRefs                   0                       # Number of Memory References
system.cpu_clk_domain.clock                      1000                       # Clock period in ticks
system.cpu_voltage_domain.voltage                   1                       # Voltage in Volts
system.l2.demand_hits::.cpu.inst                  102                       # number of demand (read+write) hits
system.l2.demand_hits::.cpu.data               346785                       # number of demand (read+write) hits
system.l2.demand_hits::total                   346887                       # number of demand (read+write) hits
system.l2.overall_hits::.cpu.inst                 102                       # number of overall hits
system.l2.overall_hits::.cpu.data              346785                       # number of overall hits
system.l2.overall_hits::total                  346887                       # number of overall hits
system.l2.demand_misses::.cpu.inst                671                       # number of demand (read+write) misses
system.l2.demand_misses::.cpu.data             180005                       # number of demand (read+write) misses
system.l2.demand_misses::total                 180676                       # number of demand (read+write) misses
system.l2.overall_misses::.cpu.inst               671                       # number of overall misses
system.l2.overall_misses::.cpu.data            180005                       # number of overall misses
system.l2.overall_misses::total                180676                       # number of overall misses
system.l2.demand_miss_latency::.cpu.inst     66522000                       # number of demand (read+write) miss cycles
system.l2.demand_miss_latency::.cpu.data  18489377000                       # number of demand (read+write) miss cycles
system.l2.demand_miss_latency::total      18555899000                       # number of demand (read+write) miss cycles
system.l2.overall_miss_latency::.cpu.inst     66522000                       # number of overall miss cycles
system.l2.overall_miss_latency::.cpu.data  18489377000                       # number of overall miss cycles
system.l2.overall_miss_latency::total     18555899000                       # number of overall miss cycles
system.l2.demand_accesses::.cpu.inst              773                       # number of demand (read+write) accesses
system.l2.demand_accesses::.cpu.data           526790                       # number of demand (read+write) accesses
system.l2.demand_accesses::total               527563                       # number of demand (read+write) accesses
system.l2.overall_accesses::.cpu.inst             773                       # number of overall (read+write) accesses
system.l2.overall_accesses::.cpu.data          526790                       # number of overall (read+write) accesses
system.l2.overall_accesses::total              527563                       # number of overall (read+write) accesses
system.l2.demand_miss_rate::.cpu.inst        0.868047                       # miss rate for demand accesses
system.l2.demand_miss_rate::.cpu.data        0.341702                       # miss rate for demand accesses
system.l2.demand_miss_rate::total            0.342473                       # miss rate for demand accesses
system.l2.overall_miss_rate::.cpu.inst       0.868047                       # miss rate for overall accesses
system.l2.overall_miss_rate::.cpu.data       0.341702                       # miss rate for overall accesses
system.l2.overall_miss_rate::total           0.342473                       # miss rate for overall accesses
system.l2.demand_avg_miss_latency::.cpu.inst 99138.599106                       # average overall miss latency
system.l2.demand_avg_miss_latency::.cpu.data 102715.907891                       # average overall miss latency
system.l2.demand_avg_miss_latency::total 102702.622374                       # average overall miss latency
system.l2.overall_avg_miss_latency::.cpu.inst 99138.599106                       # average overall miss latency
system.l2.overall_avg_miss_latency::.cpu.data 102715.907891                       # average overall miss latency
system.l2.overall_avg_miss_latency::total 102702.622374                       # average overall miss latency
system.l2.blocked_cycles::no_mshrs                  0                       # number of cycles access was blocked
system.l2.blocked_cycles::no_targets                0                       # number of cycles access was blocked
system.l2.blocked::no_mshrs                         0                       # number of cycles access was blocked
system.l2.blocked::no_targets                       0                       # number of cycles access was blocked
system.l2.avg_blocked_cycles::no_mshrs            nan                       # average number of cycles each access was blocked
system.l2.avg_blocked_cycles::no_targets          nan                       # average number of cycles each access was blocked
system.l2.writebacks::.writebacks               68661                       # number of writebacks
system.l2.writebacks::total                     68661                       # number of writebacks
system.l2.demand_mshr_hits::.cpu.data               6                       # number of demand (read+write) MSHR hits
system.l2.demand_mshr_hits::total                   6                       # number of demand (read+write) MSHR hits
system.l2.overall_mshr_hits::.cpu.data              6                       # number of overall MSHR hits
system.l2.overall_mshr_hits::total                  6                       # number of overall MSHR hits
system.l2.demand_mshr_misses::.cpu.inst           671                       # number of demand (read+write) MSHR misses
system.l2.demand_mshr_misses::.cpu.data        179999                       # number of demand (read+write) MSHR misses
system.l2.demand_mshr_misses::total            180670                       # number of demand (read+write) MSHR misses
system.l2.overall_mshr_misses::.cpu.inst          671                       # number of overall MSHR misses
system.l2.overall_mshr_misses::.cpu.data       179999                       # number of overall MSHR misses
system.l2.overall_mshr_misses::total           180670                       # number of overall MSHR misses
system.l2.demand_mshr_miss_latency::.cpu.inst     53102000                       # number of demand (read+write) MSHR miss cycles
system.l2.demand_mshr_miss_latency::.cpu.data  14888893000                       # number of demand (read+write) MSHR miss cycles
system.l2.demand_mshr_miss_latency::total  14941995000                       # number of demand (read+write) MSHR miss cycles
system.l2.overall_mshr_miss_latency::.cpu.inst     53102000                       # number of overall MSHR miss cycles
system.l2.overall_mshr_miss_latency::.cpu.data  14888893000                       # number of overall MSHR miss cycles
system.l2.overall_mshr_miss_latency::total  14941995000                       # number of overall MSHR miss cycles
system.l2.demand_mshr_miss_rate::.cpu.inst     0.868047                       # mshr miss rate for demand accesses
system.l2.demand_mshr_miss_rate::.cpu.data     0.341690                       # mshr miss rate for demand accesses
system.l2.demand_mshr_miss_rate::total       0.342461                       # mshr miss rate for demand accesses
system.l2.overall_mshr_miss_rate::.cpu.inst     0.868047                       # mshr miss rate for overall accesses
system.l2.overall_mshr_miss_rate::.cpu.data     0.341690                       # mshr miss rate for overall accesses
system.l2.overall_mshr_miss_rate::total      0.342461                       # mshr miss rate for overall accesses
system.l2.demand_avg_mshr_miss_latency::.cpu.inst 79138.599106                       # average overall mshr miss latency
system.l2.demand_avg_mshr_miss_latency::.cpu.data 82716.531759                       # average overall mshr miss latency
system.l2.demand_avg_mshr_miss_latency::total 82703.243483                       # average overall mshr miss latency
system.l2.overall_avg_mshr_miss_latency::.cpu.inst 79138.599106                       # average overall mshr miss latency
system.l2.overall_avg_mshr_miss_latency::.cpu.data 82716.531759                       # average overall mshr miss latency
system.l2.overall_avg_mshr_miss_latency::total 82703.243483                       # average overall mshr miss latency
system.l2.replacements                         115263                       # number of replacements
system.l2.WritebackDirty_hits::.writebacks       469890                       # number of WritebackDirty hits
system.l2.WritebackDirty_hits::total           469890                       # number of WritebackDirty hits
system.l2.WritebackDirty_accesses::.writebacks       469890                       # number of WritebackDirty accesses(hits+misses)
system.l2.WritebackDirty_accesses::total       469890                       # number of WritebackDirty accesses(hits+misses)
system.l2.WritebackClean_hits::.writebacks          324                       # number of WritebackClean hits
system.l2.WritebackClean_hits::total              324                       # number of WritebackClean hits
system.l2.WritebackClean_accesses::.writebacks          324                       # number of WritebackClean accesses(hits+misses)
system.l2.WritebackClean_accesses::total          324                       # number of WritebackClean accesses(hits+misses)
system.l2.ReadExReq_hits::.cpu.data            115782                       # number of ReadExReq hits
system.l2.ReadExReq_hits::total                115782                       # number of ReadExReq hits
system.l2.ReadExReq_misses::.cpu.data          127723                       # number of ReadExReq misses
system.l2.ReadExReq_misses::total              127723                       # number of ReadExReq misses
system.l2.ReadExReq_miss_latency::.cpu.data  13397622000                       # number of ReadExReq miss cycles
system.l2.ReadExReq_miss_latency::total   13397622000                       # number of ReadExReq miss cycles
system.l2.ReadExReq_accesses::.cpu.data        243505                       # number of ReadExReq accesses(hits+misses)
system.l2.ReadExReq_accesses::total            243505                       # number of ReadExReq accesses(hits+misses)
system.l2.ReadExReq_miss_rate::.cpu.data     0.524519                       # miss rate for ReadExReq accesses
system.l2.ReadExReq_miss_rate::total         0.524519                       # miss rate for ReadExReq accesses
system.l2.ReadExReq_avg_miss_latency::.cpu.data 104895.923209                       # average ReadExReq miss latency
system.l2.ReadExReq_avg_miss_latency::total 104895.923209                       # average ReadExReq miss latency
system.l2.ReadExReq_mshr_misses::.cpu.data       127723                       # number of ReadExReq MSHR misses
system.l2.ReadExReq_mshr_misses::total         127723                       # number of ReadExReq MSHR misses
system.l2.ReadExReq_mshr_miss_latency::.cpu.data  10843162000                       # number of ReadExReq MSHR miss cycles
system.l2.ReadExReq_mshr_miss_latency::total  10843162000                       # number of ReadExReq MSHR miss cycles
system.l2.ReadExReq_mshr_miss_rate::.cpu.data     0.524519                       # mshr miss rate for ReadExReq accesses
system.l2.ReadExReq_mshr_miss_rate::total     0.524519                       # mshr miss rate for ReadExReq accesses
system.l2.ReadExReq_avg_mshr_miss_latency::.cpu.data 84895.923209                       # average ReadExReq mshr miss latency
system.l2.ReadExReq_avg_mshr_miss_latency::total 84895.923209                       # average ReadExReq mshr miss latency
system.l2.ReadCleanReq_hits::.cpu.inst            102                       # number of ReadCleanReq hits
system.l2.ReadCleanReq_hits::total                102                       # number of ReadCleanReq hits
system.l2.ReadCleanReq_misses::.cpu.inst          671                       # number of ReadCleanReq misses
system.l2.ReadCleanReq_misses::total              671                       # number of ReadCleanReq misses
system.l2.ReadCleanReq_miss_latency::.cpu.inst     66522000                       # number of ReadCleanReq miss cycles
system.l2.ReadCleanReq_miss_latency::total     66522000                       # number of ReadCleanReq miss cycles
system.l2.ReadCleanReq_accesses::.cpu.inst          773                       # number of ReadCleanReq accesses(hits+misses)
system.l2.ReadCleanReq_accesses::total            773                       # number of ReadCleanReq accesses(hits+misses)
system.l2.ReadCleanReq_miss_rate::.cpu.inst     0.868047                       # miss rate for ReadCleanReq accesses
system.l2.ReadCleanReq_miss_rate::total      0.868047                       # miss rate for ReadCleanReq accesses
system.l2.ReadCleanReq_avg_miss_latency::.cpu.inst 99138.599106                       # average ReadCleanReq miss latency
system.l2.ReadCleanReq_avg_miss_latency::total 99138.599106                       # average ReadCleanReq miss latency
system.l2.ReadCleanReq_mshr_misses::.cpu.inst          671                       # number of ReadCleanReq MSHR misses
system.l2.ReadCleanReq_mshr_misses::total          671                       # number of ReadCleanReq MSHR misses
system.l2.ReadCleanReq_mshr_miss_latency::.cpu.inst     53102000                       # number of ReadCleanReq MSHR miss cycles
system.l2.ReadCleanReq_mshr_miss_latency::total     53102000                       # number of ReadCleanReq MSHR miss cycles
system.l2.ReadCleanReq_mshr_miss_rate::.cpu.inst     0.868047                       # mshr miss rate for ReadCleanReq accesses
system.l2.ReadCleanReq_mshr_miss_rate::total     0.868047                       # mshr miss rate for ReadCleanReq accesses
system.l2.ReadCleanReq_avg_mshr_miss_latency::.cpu.inst 79138.599106                       # average ReadCleanReq mshr miss latency
system.l2.ReadCleanReq_avg_mshr_miss_latency::total 79138.599106                       # average ReadCleanReq mshr miss latency
system.l2.ReadSharedReq_hits::.cpu.data        231003                       # number of ReadSharedReq hits
system.l2.ReadSharedReq_hits::total            231003                       # number of ReadSharedReq hits
system.l2.ReadSharedReq_misses::.cpu.data        52282                       # number of ReadSharedReq misses
system.l2.ReadSharedReq_misses::total           52282                       # number of ReadSharedReq misses
system.l2.ReadSharedReq_miss_latency::.cpu.data   5091755000                       # number of ReadSharedReq miss cycles
system.l2.ReadSharedReq_miss_latency::total   5091755000                       # number of ReadSharedReq miss cycles
system.l2.ReadSharedReq_accesses::.cpu.data       283285                       # number of ReadSharedReq accesses(hits+misses)
system.l2.ReadSharedReq_accesses::total        283285                       # number of ReadSharedReq accesses(hits+misses)
system.l2.ReadSharedReq_miss_rate::.cpu.data     0.184556                       # miss rate for ReadSharedReq accesses
system.l2.ReadSharedReq_miss_rate::total     0.184556                       # miss rate for ReadSharedReq accesses
system.l2.ReadSharedReq_avg_miss_latency::.cpu.data 97390.210780                       # average ReadSharedReq miss latency
system.l2.ReadSharedReq_avg_miss_latency::total 97390.210780                       # average ReadSharedReq miss latency
system.l2.ReadSharedReq_mshr_hits::.cpu.data            6                       # number of ReadSharedReq MSHR hits
system.l2.ReadSharedReq_mshr_hits::total            6                       # number of ReadSharedReq MSHR hits
system.l2.ReadSharedReq_mshr_misses::.cpu.data        52276                       # number of ReadSharedReq MSHR misses
system.l2.ReadSharedReq_mshr_misses::total        52276                       # number of ReadSharedReq MSHR misses
system.l2.ReadSharedReq_mshr_miss_latency::.cpu.data   4045731000                       # number of ReadSharedReq MSHR miss cycles
system.l2.ReadSharedReq_mshr_miss_latency::total   4045731000                       # number of ReadSharedReq MSHR miss cycles
system.l2.ReadSharedReq_mshr_miss_rate::.cpu.data     0.184535                       # mshr miss rate for ReadSharedReq accesses
system.l2.ReadSharedReq_mshr_miss_rate::total     0.184535                       # mshr miss rate for ReadSharedReq accesses
system.l2.ReadSharedReq_avg_mshr_miss_latency::.cpu.data 77391.747647                       # average ReadSharedReq mshr miss latency
system.l2.ReadSharedReq_avg_mshr_miss_latency::total 77391.747647                       # average ReadSharedReq mshr miss latency
system.l2.power_state.pwrStateResidencyTicks::UNDEFINED 156180726000                       # Cumulative time (in ticks) in various power states
system.l2.tags.tagsinuse                 63833.445778                       # Cycle average of tags in use
system.l2.tags.total_refs                     1052569                       # Total number of references to valid blocks.
system.l2.tags.sampled_refs                    180799                       # Sample count of references to valid blocks.
system.l2.tags.avg_refs                      5.821763                       # Average number of references to valid blocks.
system.l2.tags.warmup_cycle                     87000                       # Cycle when the warmup percentage was hit.
system.l2.tags.occ_blocks::.writebacks      71.444342                       # Average occupied blocks per requestor
system.l2.tags.occ_blocks::.cpu.inst       119.364794                       # Average occupied blocks per requestor
system.l2.tags.occ_blocks::.cpu.data     63642.636642                       # Average occupied blocks per requestor
system.l2.tags.occ_percent::.writebacks      0.001090                       # Average percentage of cache occupancy
system.l2.tags.occ_percent::.cpu.inst        0.001821                       # Average percentage of cache occupancy
system.l2.tags.occ_percent::.cpu.data        0.971110                       # Average percentage of cache occupancy
system.l2.tags.occ_percent::total            0.974021                       # Average percentage of cache occupancy
system.l2.tags.occ_task_id_blocks::1024         65536                       # Occupied blocks per task id
system.l2.tags.age_task_id_blocks_1024::2            7                       # Occupied blocks per task id
system.l2.tags.age_task_id_blocks_1024::3           79                       # Occupied blocks per task id
system.l2.tags.age_task_id_blocks_1024::4        65450                       # Occupied blocks per task id
system.l2.tags.occ_task_id_percent::1024            1                       # Percentage of cache occupancy per task id
system.l2.tags.tag_accesses                   8601399                       # Number of tag accesses
system.l2.tags.data_accesses                  8601399                       # Number of data accesses
system.l2.tags.power_state.pwrStateResidencyTicks::UNDEFINED 156180726000                       # Cumulative time (in ticks) in various power states
system.mem_ctrls.avgPriority_.writebacks::samples     68661.00                       # Average QoS priority value for accepted requests
system.mem_ctrls.avgPriority_.cpu.inst::samples       671.00                       # Average QoS priority value for accepted requests
system.mem_ctrls.avgPriority_.cpu.data::samples    179984.00                       # Average QoS priority value for accepted requests
system.mem_ctrls.priorityMinLatency      0.000000018750                       # per QoS priority minimum request to response latency (s)
system.mem_ctrls.priorityMaxLatency      0.012695314500                       # per QoS priority maximum request to response latency (s)
system.mem_ctrls.numReadWriteTurnArounds         4108                       # Number of turnarounds from READ to WRITE
system.mem_ctrls.numWriteReadTurnArounds         4108                       # Number of turnarounds from WRITE to READ
system.mem_ctrls.numStayReadState              464224                       # Number of times bus staying in READ state
system.mem_ctrls.numStayWriteState              64636                       # Number of times bus staying in WRITE state
system.mem_ctrls.readReqs                      180670                       # Number of read requests accepted
system.mem_ctrls.writeReqs                      68661                       # Number of write requests accepted
system.mem_ctrls.readBursts                    180670                       # Number of controller read bursts, including those serviced by the write queue
system.mem_ctrls.writeBursts                    68661                       # Number of controller write bursts, including those merged in the write queue
system.mem_ctrls.servicedByWrQ                     15                       # Number of controller read bursts serviced by the write queue
system.mem_ctrls.mergedWrBursts                     0                       # Number of controller write bursts merged with an existing one
system.mem_ctrls.neitherReadNorWriteReqs            0                       # Number of requests that are neither read nor write
system.mem_ctrls.avgRdQLen                       1.04                       # Average read queue length when enqueuing
system.mem_ctrls.avgWrQLen                      24.78                       # Average write queue length when enqueuing
system.mem_ctrls.numRdRetry                         0                       # Number of times read queue was full causing retry
system.mem_ctrls.numWrRetry                         0                       # Number of times write queue was full causing retry
system.mem_ctrls.readPktSize::0                     0                       # Read request sizes (log2)
system.mem_ctrls.readPktSize::1                     0                       # Read request sizes (log2)
system.mem_ctrls.readPktSize::2                     0                       # Read request sizes (log2)
system.mem_ctrls.readPktSize::3                     0                       # Read request sizes (log2)
system.mem_ctrls.readPktSize::4                     0                       # Read request sizes (log2)
system.mem_ctrls.readPktSize::5                     0                       # Read request sizes (log2)
system.mem_ctrls.readPktSize::6                180670                       # Read request sizes (log2)
system.mem_ctrls.writePktSize::0                    0                       # Write request sizes (log2)
system.mem_ctrls.writePktSize::1                    0                       # Write request sizes (log2)
system.mem_ctrls.writePktSize::2                    0                       # Write request sizes (log2)
system.mem_ctrls.writePktSize::3                    0                       # Write request sizes (log2)
system.mem_ctrls.writePktSize::4                    0                       # Write request sizes (log2)
system.mem_ctrls.writePktSize::5                    0                       # Write request sizes (log2)
system.mem_ctrls.writePktSize::6                68661                       # Write request sizes (log2)
system.mem_ctrls.rdQLenPdf::0                  132575                       # What read queue length does an incoming req see
system.mem_ctrls.rdQLenPdf::1                   47671                       # What read queue length does an incoming req see
system.mem_ctrls.rdQLenPdf::2                     252                       # What read queue length does an incoming req see
system.mem_ctrls.rdQLenPdf::3                     156                       # What read queue length does an incoming req see
system.mem_ctrls.rdQLenPdf::4                       1                       # What read queue length does an incoming req see
system.mem_ctrls.rdQLenPdf::5                       0                       # What read queue length does an incoming req see
system.mem_ctrls.rdQLenPdf::6                       0                       # What read queue length does an incoming req see
system.mem_ctrls.rdQLenPdf::7                       0                       # What read queue length does an incoming req see
system.mem_ctrls.rdQLenPdf::8                       0                       # What read queue length does an incoming req see
system.mem_ctrls.rdQLenPdf::9                       0                       # What read queue length does an incoming req see
system.mem_ctrls.rdQLenPdf::10                      0                       # What read queue length does an incoming req see
system.mem_ctrls.rdQLenPdf::11                      0                       # What read queue length does an incoming req see
system.mem_ctrls.rdQLenPdf::12                      0                       # What read queue length does an incoming req see
[...]
system.mem_ctrls.dram.bw_write::.writebacks     28136020                       # Write bandwidth from this memory (bytes/s)
system.mem_ctrls.dram.bw_write::total        28136020                       # Write bandwidth from this memory (bytes/s)
system.mem_ctrls.dram.bw_total::.writebacks     28136020                       # Total bandwidth to/from this memory (bytes/s)
system.mem_ctrls.dram.bw_total::.cpu.inst       274964                       # Total bandwidth to/from this memory (bytes/s)
system.mem_ctrls.dram.bw_total::.cpu.data     73760292                       # Total bandwidth to/from this memory (bytes/s)
system.mem_ctrls.dram.bw_total::total       102171276                       # Total bandwidth to/from this memory (bytes/s)
system.mem_ctrls.dram.readBursts               180655                       # Number of DRAM read bursts
system.mem_ctrls.dram.writeBursts               68637                       # Number of DRAM write bursts
system.mem_ctrls.dram.perBankRdBursts::0        11392                       # Per bank write bursts
system.mem_ctrls.dram.perBankRdBursts::1        11431                       # Per bank write bursts
system.mem_ctrls.dram.perBankRdBursts::2        11421                       # Per bank write bursts
system.mem_ctrls.dram.perBankRdBursts::3        11409                       # Per bank write bursts
system.mem_ctrls.dram.perBankRdBursts::4        11392                       # Per bank write bursts
system.mem_ctrls.dram.perBankRdBursts::5        11246                       # Per bank write bursts
system.mem_ctrls.dram.perBankRdBursts::6        11241                       # Per bank write bursts
system.mem_ctrls.dram.perBankRdBursts::7        11154                       # Per bank write bursts
system.mem_ctrls.dram.perBankRdBursts::8        11292                       # Per bank write bursts
system.mem_ctrls.dram.perBankRdBursts::9        11040                       # Per bank write bursts
system.mem_ctrls.dram.perBankRdBursts::10        11316                       # Per bank write bursts
system.mem_ctrls.dram.perBankRdBursts::11        11320                       # Per bank write bursts
system.mem_ctrls.dram.perBankRdBursts::12        11279                       # Per bank write bursts
system.mem_ctrls.dram.perBankRdBursts::13        11331                       # Per bank write bursts
system.mem_ctrls.dram.perBankRdBursts::14        11221                       # Per bank write bursts
system.mem_ctrls.dram.perBankRdBursts::15        11170                       # Per bank write bursts
system.mem_ctrls.dram.perBankWrBursts::0         4279                       # Per bank write bursts
system.mem_ctrls.dram.perBankWrBursts::1         4473                       # Per bank write bursts
system.mem_ctrls.dram.perBankWrBursts::2         4383                       # Per bank write bursts
system.mem_ctrls.dram.perBankWrBursts::3         4389                       # Per bank write bursts
system.mem_ctrls.dram.perBankWrBursts::4         4381                       # Per bank write bursts
system.mem_ctrls.dram.perBankWrBursts::5         4284                       # Per bank write bursts
system.mem_ctrls.dram.perBankWrBursts::6         4303                       # Per bank write bursts
system.mem_ctrls.dram.perBankWrBursts::7         4295                       # Per bank write bursts
system.mem_ctrls.dram.perBankWrBursts::8         4293                       # Per bank write bursts
system.mem_ctrls.dram.perBankWrBursts::9         4212                       # Per bank write bursts
system.mem_ctrls.dram.perBankWrBursts::10         4225                       # Per bank write bursts
system.mem_ctrls.dram.perBankWrBursts::11         4224                       # Per bank write bursts
system.mem_ctrls.dram.perBankWrBursts::12         4224                       # Per bank write bursts
system.mem_ctrls.dram.perBankWrBursts::13         4224                       # Per bank write bursts
system.mem_ctrls.dram.perBankWrBursts::14         4224                       # Per bank write bursts
system.mem_ctrls.dram.perBankWrBursts::15         4224                       # Per bank write bursts
system.mem_ctrls.dram.totQLat              2265195250                       # Total ticks spent queuing
system.mem_ctrls.dram.totBusLat             903275000                       # Total ticks spent in databus transfers
system.mem_ctrls.dram.totMemAccLat         5652476500                       # Total ticks spent from burst creation until serviced by the DRAM
system.mem_ctrls.dram.avgQLat                12538.79                       # Average queueing delay per DRAM burst
system.mem_ctrls.dram.avgBusLat               5000.00                       # Average bus latency per DRAM burst
system.mem_ctrls.dram.avgMemAccLat           31288.79                       # Average memory access latency per DRAM burst
system.mem_ctrls.dram.readRowHits              126856                       # Number of row buffer hits during reads
system.mem_ctrls.dram.writeRowHits              51452                       # Number of row buffer hits during writes
system.mem_ctrls.dram.readRowHitRate            70.22                       # Row buffer hit rate for reads
system.mem_ctrls.dram.writeRowHitRate           74.96                       # Row buffer hit rate for writes
system.mem_ctrls.dram.bytesPerActivate::samples        70984                       # Bytes accessed per row activation
system.mem_ctrls.dram.bytesPerActivate::mean   224.764567                       # Bytes accessed per row activation
system.mem_ctrls.dram.bytesPerActivate::gmean   125.862536                       # Bytes accessed per row activation
system.mem_ctrls.dram.bytesPerActivate::stdev   280.561112                       # Bytes accessed per row activation
system.mem_ctrls.dram.bytesPerActivate::0-127        45155     63.61%     63.61% # Bytes accessed per row activation
system.mem_ctrls.dram.bytesPerActivate::128-255         5830      8.21%     71.83% # Bytes accessed per row activation
system.mem_ctrls.dram.bytesPerActivate::256-383         4089      5.76%     77.59% # Bytes accessed per row activation
system.mem_ctrls.dram.bytesPerActivate::384-511         1267      1.78%     79.37% # Bytes accessed per row activation
system.mem_ctrls.dram.bytesPerActivate::512-639         8118     11.44%     90.81% # Bytes accessed per row activation
system.mem_ctrls.dram.bytesPerActivate::640-767          856      1.21%     92.01% # Bytes accessed per row activation
system.mem_ctrls.dram.bytesPerActivate::768-895          424      0.60%     92.61% # Bytes accessed per row activation
system.mem_ctrls.dram.bytesPerActivate::896-1023          362      0.51%     93.12% # Bytes accessed per row activation
system.mem_ctrls.dram.bytesPerActivate::1024-1151         4883      6.88%    100.00% # Bytes accessed per row activation
system.mem_ctrls.dram.bytesPerActivate::total        70984                       # Bytes accessed per row activation
system.mem_ctrls.dram.bytesRead              11561920                       # Total number of bytes read from DRAM
system.mem_ctrls.dram.bytesWritten            4392768                       # Total number of bytes written to DRAM
system.mem_ctrls.dram.avgRdBW               74.029109                       # Average DRAM read bandwidth in MiBytes/s
system.mem_ctrls.dram.avgWrBW               28.126185                       # Average DRAM write bandwidth in MiBytes/s
system.mem_ctrls.dram.peakBW                 12800.00                       # Theoretical peak bandwidth in MiByte/s
system.mem_ctrls.dram.busUtil                    0.80                       # Data bus utilization in percentage
system.mem_ctrls.dram.busUtilRead                0.58                       # Data bus utilization in percentage for reads
system.mem_ctrls.dram.busUtilWrite               0.22                       # Data bus utilization in percentage for writes
system.mem_ctrls.dram.pageHitRate               71.53                       # Row buffer hit rate, read and write combined
system.mem_ctrls.dram.power_state.pwrStateResidencyTicks::UNDEFINED 156180726000                       # Cumulative time (in ticks) in various power states
system.mem_ctrls.dram.rank0.actEnergy       257247060                       # Energy for activate commands per rank (pJ)
system.mem_ctrls.dram.rank0.preEnergy       136730055                       # Energy for precharge commands per rank (pJ)
system.mem_ctrls.dram.rank0.readEnergy      647498040                       # Energy for read commands per rank (pJ)
system.mem_ctrls.dram.rank0.writeEnergy     181588140                       # Energy for write commands per rank (pJ)
system.mem_ctrls.dram.rank0.refreshEnergy 12328449120.000002                       # Energy for refresh commands per rank (pJ)
system.mem_ctrls.dram.rank0.actBackEnergy  28973076060                       # Energy for active background per rank (pJ)
system.mem_ctrls.dram.rank0.preBackEnergy  35575019040                       # Energy for precharge background per rank (pJ)
system.mem_ctrls.dram.rank0.actPowerDownEnergy            0                       # Energy for active power-down per rank (pJ)
system.mem_ctrls.dram.rank0.prePowerDownEnergy            0                       # Energy for precharge power-down per rank (pJ)
system.mem_ctrls.dram.rank0.selfRefreshEnergy            0                       # Energy for self refresh per rank (pJ)
system.mem_ctrls.dram.rank0.totalEnergy   78099607515                       # Total energy per rank (pJ)
system.mem_ctrls.dram.rank0.averagePower   500.059191                       # Core power per rank (mW)
system.mem_ctrls.dram.rank0.totalIdleTime            0                       # Total Idle time Per DRAM Rank
system.mem_ctrls.dram.rank0.pwrStateTime::IDLE  92179671500                       # Time in different power states
system.mem_ctrls.dram.rank0.pwrStateTime::REF   5215080000                       # Time in different power states
system.mem_ctrls.dram.rank0.pwrStateTime::SREF            0                       # Time in different power states
system.mem_ctrls.dram.rank0.pwrStateTime::PRE_PDN            0                       # Time in different power states
system.mem_ctrls.dram.rank0.pwrStateTime::ACT  58785974500                       # Time in different power states
system.mem_ctrls.dram.rank0.pwrStateTime::ACT_PDN            0                       # Time in different power states
system.mem_ctrls.dram.rank1.actEnergy       249578700                       # Energy for activate commands per rank (pJ)
system.mem_ctrls.dram.rank1.preEnergy       132654225                       # Energy for precharge commands per rank (pJ)
system.mem_ctrls.dram.rank1.readEnergy      642378660                       # Energy for read commands per rank (pJ)
system.mem_ctrls.dram.rank1.writeEnergy     176697000                       # Energy for write commands per rank (pJ)
system.mem_ctrls.dram.rank1.refreshEnergy 12328449120.000002                       # Energy for refresh commands per rank (pJ)
system.mem_ctrls.dram.rank1.actBackEnergy  28308991290                       # Energy for active background per rank (pJ)
system.mem_ctrls.dram.rank1.preBackEnergy  36134248320                       # Energy for precharge background per rank (pJ)
system.mem_ctrls.dram.rank1.actPowerDownEnergy            0                       # Energy for active power-down per rank (pJ)
system.mem_ctrls.dram.rank1.prePowerDownEnergy            0                       # Energy for precharge power-down per rank (pJ)
system.mem_ctrls.dram.rank1.selfRefreshEnergy            0                       # Energy for self refresh per rank (pJ)
system.mem_ctrls.dram.rank1.totalEnergy   77972997315                       # Total energy per rank (pJ)
system.mem_ctrls.dram.rank1.averagePower   499.248526                       # Core power per rank (mW)
system.mem_ctrls.dram.rank1.totalIdleTime            0                       # Total Idle time Per DRAM Rank
system.mem_ctrls.dram.rank1.pwrStateTime::IDLE  93639934250                       # Time in different power states
system.mem_ctrls.dram.rank1.pwrStateTime::REF   5215080000                       # Time in different power states
system.mem_ctrls.dram.rank1.pwrStateTime::SREF            0                       # Time in different power states
system.mem_ctrls.dram.rank1.pwrStateTime::PRE_PDN            0                       # Time in different power states
system.mem_ctrls.dram.rank1.pwrStateTime::ACT  57325711750                       # Time in different power states
system.mem_ctrls.dram.rank1.pwrStateTime::ACT_PDN            0                       # Time in different power states
system.mem_ctrls.power_state.pwrStateResidencyTicks::UNDEFINED 156180726000                       # Cumulative time (in ticks) in various power states
system.membus.trans_dist::ReadResp              52947                       # Transaction distribution
system.membus.trans_dist::WritebackDirty        68661                       # Transaction distribution
system.membus.trans_dist::CleanEvict            46145                       # Transaction distribution
system.membus.trans_dist::ReadExReq            127723                       # Transaction distribution
system.membus.trans_dist::ReadExResp           127723                       # Transaction distribution
system.membus.trans_dist::ReadSharedReq         52947                       # Transaction distribution
system.membus.pkt_count_system.l2.mem_side_port::system.mem_ctrls.port       476146                       # Packet count per connected requestor and responder (bytes)
system.membus.pkt_count::total                 476146                       # Packet count per connected requestor and responder (bytes)
system.membus.pkt_size_system.l2.mem_side_port::system.mem_ctrls.port     15957184                       # Cumulative packet size per connected requestor and responder (bytes)
system.membus.pkt_size::total                15957184                       # Cumulative packet size per connected requestor and responder (bytes)
system.membus.snoops                                0                       # Total snoops (count)
system.membus.snoopTraffic                          0                       # Total snoop traffic (bytes)
system.membus.snoop_fanout::samples            180670                       # Request fanout histogram
system.membus.snoop_fanout::mean                    0                       # Request fanout histogram
system.membus.snoop_fanout::stdev                   0                       # Request fanout histogram
system.membus.snoop_fanout::underflows              0      0.00%      0.00% # Request fanout histogram
system.membus.snoop_fanout::0                  180670    100.00%    100.00% # Request fanout histogram
system.membus.snoop_fanout::1                       0      0.00%    100.00% # Request fanout histogram
system.membus.snoop_fanout::overflows               0      0.00%    100.00% # Request fanout histogram
system.membus.snoop_fanout::min_value               0                       # Request fanout histogram
system.membus.snoop_fanout::max_value               0                       # Request fanout histogram
system.membus.snoop_fanout::total              180670                       # Request fanout histogram
system.membus.power_state.pwrStateResidencyTicks::UNDEFINED 156180726000                       # Cumulative time (in ticks) in various power states
system.membus.reqLayer0.occupancy           570120000                       # Layer occupancy (ticks)
system.membus.reqLayer0.utilization               0.4                       # Layer utilization (%)
system.membus.respLayer1.occupancy          975107500                       # Layer occupancy (ticks)
system.membus.respLayer1.utilization              0.6                       # Layer utilization (%)
system.tol2bus.trans_dist::ReadResp            284058                       # Transaction distribution
system.tol2bus.trans_dist::WritebackDirty       538551                       # Transaction distribution
system.tol2bus.trans_dist::WritebackClean          333                       # Transaction distribution
system.tol2bus.trans_dist::CleanEvict          101454                       # Transaction distribution
system.tol2bus.trans_dist::ReadExReq           243505                       # Transaction distribution
system.tol2bus.trans_dist::ReadExResp          243505                       # Transaction distribution
system.tol2bus.trans_dist::ReadCleanReq           773                       # Transaction distribution
system.tol2bus.trans_dist::ReadSharedReq       283285                       # Transaction distribution
system.tol2bus.pkt_count_system.cpu.icache.mem_side_port::system.l2.cpu_side_port         1879                       # Packet count per connected requestor and responder (bytes)
system.tol2bus.pkt_count_system.cpu.dcache.mem_side_port::system.l2.cpu_side_port      1578322                       # Packet count per connected requestor and responder (bytes)
system.tol2bus.pkt_count::total               1580201                       # Packet count per connected requestor and responder (bytes)
system.tol2bus.pkt_size_system.cpu.icache.mem_side_port::system.l2.cpu_side_port        70784                       # Cumulative packet size per connected requestor and responder (bytes)
system.tol2bus.pkt_size_system.cpu.dcache.mem_side_port::system.l2.cpu_side_port     63787520                       # Cumulative packet size per connected requestor and responder (bytes)
system.tol2bus.pkt_size::total               63858304                       # Cumulative packet size per connected requestor and responder (bytes)
system.tol2bus.snoops                          115263                       # Total snoops (count)
system.tol2bus.snoopTraffic                   4394304                       # Total snoop traffic (bytes)
system.tol2bus.snoop_fanout::samples           642826                       # Request fanout histogram
system.tol2bus.snoop_fanout::mean            0.000812                       # Request fanout histogram
system.tol2bus.snoop_fanout::stdev           0.028485                       # Request fanout histogram
system.tol2bus.snoop_fanout::underflows             0      0.00%      0.00% # Request fanout histogram
system.tol2bus.snoop_fanout::0                 642304     99.92%     99.92% # Request fanout histogram
system.tol2bus.snoop_fanout::1                    522      0.08%    100.00% # Request fanout histogram
system.tol2bus.snoop_fanout::2                      0      0.00%    100.00% # Request fanout histogram
system.tol2bus.snoop_fanout::overflows              0      0.00%    100.00% # Request fanout histogram
system.tol2bus.snoop_fanout::min_value              0                       # Request fanout histogram
system.tol2bus.snoop_fanout::max_value              1                       # Request fanout histogram
system.tol2bus.snoop_fanout::total             642826                       # Request fanout histogram
system.tol2bus.power_state.pwrStateResidencyTicks::UNDEFINED 156180726000                       # Cumulative time (in ticks) in various power states
system.tol2bus.reqLayer0.occupancy         1993084000                       # Layer occupancy (ticks)
system.tol2bus.reqLayer0.utilization              1.3                       # Layer utilization (%)
system.tol2bus.respLayer0.occupancy           2319000                       # Layer occupancy (ticks)
system.tol2bus.respLayer0.utilization             0.0                       # Layer utilization (%)
system.tol2bus.respLayer1.occupancy        1580375994                       # Layer occupancy (ticks)
system.tol2bus.respLayer1.utilization             1.0                       # Layer utilization (%)
system.voltage_domain.voltage                       1                       # Voltage in Volts

---------- End Simulation Statistics   ----------
