
---------- Begin Simulation Statistics ----------
final_tick                                81034522000                       # Number of ticks from beginning of simulation (restored from checkpoints and never reset)
host_inst_rate                                 268912                       # Simulator instruction rate (inst/s)
host_mem_usage                                 669248                       # Number of bytes of host memory used
host_op_rate                                   269440                       # Simulator op (including micro ops) rate (op/s)
host_seconds                                   371.87                       # Real time elapsed on the host
host_tick_rate                              217911255                       # Simulator tick rate (ticks/s)
sim_freq                                 1000000000000                       # Frequency of simulated ticks
sim_insts                                   100000001                       # Number of instructions simulated
sim_ops                                     100196356                       # Number of ops (including micro ops) simulated
sim_seconds                                  0.081035                       # Number of seconds simulated
sim_ticks                                 81034522000                       # Number of ticks simulated
system.cpu.committedInsts                   100000001                       # Number of instructions committed
system.cpu.committedOps                     100196356                       # Number of ops (including micro ops) committed
system.cpu.cpi                               1.620690                       # CPI: cycles per instruction
system.cpu.discardedOps                        191013                       # Number of ops (including micro ops) which were discarded before commit
system.cpu.idleCycles                        29638569                       # Total number of cycles that the object has spent stopped
system.cpu.ipc                               0.617021                       # IPC: instructions per cycle
system.cpu.numCycles                        162069044                       # number of cpu cycles simulated
system.cpu.numFetchSuspends                         0                       # Number of times Execute suspended instruction fetching
system.cpu.numWorkItemsCompleted                    0                       # number of work items this cpu completed
system.cpu.numWorkItemsStarted                      0                       # number of work items this cpu started
system.cpu.op_class_0::No_OpClass                   0      0.00%      0.00% # Class of committed instruction
system.cpu.op_class_0::IntAlu                46526863     46.44%     46.44% # Class of committed instruction
system.cpu.op_class_0::IntMult                  20723      0.02%     46.46% # Class of committed instruction
system.cpu.op_class_0::IntDiv                       0      0.00%     46.46% # Class of committed instruction
system.cpu.op_class_0::FloatAdd                     0      0.00%     46.46% # Class of committed instruction
system.cpu.op_class_0::FloatCmp                     0      0.00%     46.46% # Class of committed instruction
system.cpu.op_class_0::FloatCvt                     0      0.00%     46.46% # Class of committed instruction
system.cpu.op_class_0::FloatMult                    0      0.00%     46.46% # Class of committed instruction
system.cpu.op_class_0::FloatMultAcc                 0      0.00%     46.46% # Class of committed instruction
system.cpu.op_class_0::FloatDiv                     0      0.00%     46.46% # Class of committed instruction
system.cpu.op_class_0::FloatMisc                    0      0.00%     46.46% # Class of committed instruction
system.cpu.op_class_0::FloatSqrt                    0      0.00%     46.46% # Class of committed instruction
system.cpu.op_class_0::SimdAdd                      0      0.00%     46.46% # Class of committed instruction
system.cpu.op_class_0::SimdAddAcc                   0      0.00%     46.46% # Class of committed instruction
system.cpu.op_class_0::SimdAlu                      0      0.00%     46.46% # Class of committed instruction
system.cpu.op_class_0::SimdCmp                      0      0.00%     46.46% # Class of committed instruction
system.cpu.op_class_0::SimdCvt                      0      0.00%     46.46% # Class of committed instruction
system.cpu.op_class_0::SimdMisc                     0      0.00%     46.46% # Class of committed instruction
system.cpu.op_class_0::SimdMult                     0      0.00%     46.46% # Class of committed instruction
system.cpu.op_class_0::SimdMultAcc                  0      0.00%     46.46% # Class of committed instruction
system.cpu.op_class_0::SimdShift                    0      0.00%     46.46% # Class of committed instruction
system.cpu.op_class_0::SimdShiftAcc                 0      0.00%     46.46% # Class of committed instruction
system.cpu.op_class_0::SimdDiv                      0      0.00%     46.46% # Class of committed instruction
system.cpu.op_class_0::SimdSqrt                     0      0.00%     46.46% # Class of committed instruction
system.cpu.op_class_0::SimdFloatAdd                 0      0.00%     46.46% # Class of committed instruction
system.cpu.op_class_0::SimdFloatAlu                 0      0.00%     46.46% # Class of committed instruction
system.cpu.op_class_0::SimdFloatCmp                 0      0.00%     46.46% # Class of committed instruction
system.cpu.op_class_0::SimdFloatCvt                 0      0.00%     46.46% # Class of committed instruction
system.cpu.op_class_0::SimdFloatDiv                 0      0.00%     46.46% # Class of committed instruction
system.cpu.op_class_0::SimdFloatMisc               18      0.00%     46.46% # Class of committed instruction
system.cpu.op_class_0::SimdFloatMult                0      0.00%     46.46% # Class of committed instruction
system.cpu.op_class_0::SimdFloatMultAcc             0      0.00%     46.46% # Class of committed instruction
system.cpu.op_class_0::SimdFloatSqrt                0      0.00%     46.46% # Class of committed instruction
system.cpu.op_class_0::SimdReduceAdd                0      0.00%     46.46% # Class of committed instruction
system.cpu.op_class_0::SimdReduceAlu                0      0.00%     46.46% # Class of committed instruction
system.cpu.op_class_0::SimdReduceCmp                0      0.00%     46.46% # Class of committed instruction
system.cpu.op_class_0::SimdFloatReduceAdd            0      0.00%     46.46% # Class of committed instruction
system.cpu.op_class_0::SimdFloatReduceCmp            0      0.00%     46.46% # Class of committed instruction
system.cpu.op_class_0::SimdAes                      0      0.00%     46.46% # Class of committed instruction
system.cpu.op_class_0::SimdAesMix                   0      0.00%     46.46% # Class of committed instruction
system.cpu.op_class_0::SimdSha1Hash                 0      0.00%     46.46% # Class of committed instruction
system.cpu.op_class_0::SimdSha1Hash2                0      0.00%     46.46% # Class of committed instruction
system.cpu.op_class_0::SimdSha256Hash               0      0.00%     46.46% # Class of committed instruction
system.cpu.op_class_0::SimdSha256Hash2              0      0.00%     46.46% # Class of committed instruction
system.cpu.op_class_0::SimdShaSigma2                0      0.00%     46.46% # Class of committed instruction
system.cpu.op_class_0::SimdShaSigma3                0      0.00%     46.46% # Class of committed instruction
system.cpu.op_class_0::SimdPredAlu                  0      0.00%     46.46% # Class of committed instruction
system.cpu.op_class_0::MemRead               42690537     42.61%     89.06% # Class of committed instruction
system.cpu.op_class_0::MemWrite              10958215     10.94%    100.00% # Class of committed instruction
system.cpu.op_class_0::FloatMemRead                 0      0.00%    100.00% # Class of committed instruction
system.cpu.op_class_0::FloatMemWrite                0      0.00%    100.00% # Class of committed instruction
system.cpu.op_class_0::IprAccess                    0      0.00%    100.00% # Class of committed instruction
system.cpu.op_class_0::InstPrefetch                 0      0.00%    100.00% # Class of committed instruction
system.cpu.op_class_0::total                100196356                       # Class of committed instruction
system.cpu.tickCycles                       132430475                       # Number of cycles that the object actually ticked
system.cpu.workload.numSyscalls                    85                       # Number of system calls
system.membus.snoop_filter.hit_multi_requests            0                       # Number of requests hitting in the snoop filter with multiple (>1) holders of the requested data.
system.membus.snoop_filter.hit_multi_snoops            0                       # Number of snoops hitting in the snoop filter with multiple (>1) holders of the requested data.
system.membus.snoop_filter.hit_single_requests        77184                       # Number of requests hitting in the snoop filter with a single holder of the requested data.
system.membus.snoop_filter.hit_single_snoops            0                       # Number of snoops hitting in the snoop filter with a single holder of the requested data.
system.membus.snoop_filter.tot_requests        187460                       # Total number of requests made to the snoop filter.
system.membus.snoop_filter.tot_snoops               0                       # Total number of snoops made to the snoop filter.
system.tol2bus.snoop_filter.hit_multi_requests          690                       # Number of requests hitting in the snoop filter with multiple (>1) holders of the requested data.
system.tol2bus.snoop_filter.hit_multi_snoops            0                       # Number of snoops hitting in the snoop filter with multiple (>1) holders of the requested data.
system.tol2bus.snoop_filter.hit_single_requests       573605                       # Number of requests hitting in the snoop filter with a single holder of the requested data.
system.tol2bus.snoop_filter.hit_single_snoops          358                       # Number of snoops hitting in the snoop filter with a single holder of the requested data.
system.tol2bus.snoop_filter.tot_requests      1148631                       # Total number of requests made to the snoop filter.
system.tol2bus.snoop_filter.tot_snoops            358                       # Total number of snoops made to the snoop filter.
system.clk_domain.clock                          1000                       # Clock period in ticks
system.cpu.branchPred.lookups                 4486330                       # Number of BP lookups
system.cpu.branchPred.condPredicted           3736001                       # Number of conditional branches predicted
system.cpu.branchPred.condIncorrect             81008                       # Number of conditional branches incorrect
system.cpu.branchPred.BTBLookups              2104244                       # Number of BTB lookups
system.cpu.branchPred.BTBHits                 2102151                       # Number of BTB hits
system.cpu.branchPred.BTBHitPct             99.900534                       # BTB Hit Percentage
system.cpu.branchPred.RASUsed                   65261                       # Number of times the RAS was used to get a target.
system.cpu.branchPred.RASIncorrect                 15                       # Number of incorrect RAS predictions.
system.cpu.branchPred.indirectLookups             694                       # Number of indirect predictor lookups.
system.cpu.branchPred.indirectHits                288                       # Number of indirect target hits.
system.cpu.branchPred.indirectMisses              406                       # Number of indirect misses.
system.cpu.branchPred.indirectMispredicted          169                       # Number of mispredicted indirect branches.
system.cpu.dcache.demand_hits::.cpu.data     51444748                       # number of demand (read+write) hits
system.cpu.dcache.demand_hits::total         51444748                       # number of demand (read+write) hits
system.cpu.dcache.overall_hits::.cpu.data     51445328                       # number of overall hits
system.cpu.dcache.overall_hits::total        51445328                       # number of overall hits
system.cpu.dcache.demand_misses::.cpu.data       608121                       # number of demand (read+write) misses
system.cpu.dcache.demand_misses::total         608121                       # number of demand (read+write) misses
system.cpu.dcache.overall_misses::.cpu.data       615960                       # number of overall misses
system.cpu.dcache.overall_misses::total        615960                       # number of overall misses
system.cpu.dcache.demand_miss_latency::.cpu.data  18362039000                       # number of demand (read+write) miss cycles
system.cpu.dcache.demand_miss_latency::total  18362039000                       # number of demand (read+write) miss cycles
system.cpu.dcache.overall_miss_latency::.cpu.data  18362039000                       # number of overall miss cycles
system.cpu.dcache.overall_miss_latency::total  18362039000                       # number of overall miss cycles
system.cpu.dcache.demand_accesses::.cpu.data     52052869                       # number of demand (read+write) accesses
system.cpu.dcache.demand_accesses::total     52052869                       # number of demand (read+write) accesses
system.cpu.dcache.overall_accesses::.cpu.data     52061288                       # number of overall (read+write) accesses
system.cpu.dcache.overall_accesses::total     52061288                       # number of overall (read+write) accesses
system.cpu.dcache.demand_miss_rate::.cpu.data     0.011683                       # miss rate for demand accesses
system.cpu.dcache.demand_miss_rate::total     0.011683                       # miss rate for demand accesses
system.cpu.dcache.overall_miss_rate::.cpu.data     0.011831                       # miss rate for overall accesses
system.cpu.dcache.overall_miss_rate::total     0.011831                       # miss rate for overall accesses
system.cpu.dcache.demand_avg_miss_latency::.cpu.data 30194.712894                       # average overall miss latency
system.cpu.dcache.demand_avg_miss_latency::total 30194.712894                       # average overall miss latency
system.cpu.dcache.overall_avg_miss_latency::.cpu.data 29810.440613                       # average overall miss latency
system.cpu.dcache.overall_avg_miss_latency::total 29810.440613                       # average overall miss latency
system.cpu.dcache.blocked_cycles::no_mshrs            0                       # number of cycles access was blocked
system.cpu.dcache.blocked_cycles::no_targets            0                       # number of cycles access was blocked
system.cpu.dcache.blocked::no_mshrs                 0                       # number of cycles access was blocked
system.cpu.dcache.blocked::no_targets               0                       # number of cycles access was blocked
system.cpu.dcache.avg_blocked_cycles::no_mshrs          nan                       # average number of cycles each access was blocked
system.cpu.dcache.avg_blocked_cycles::no_targets          nan                       # average number of cycles each access was blocked
system.cpu.dcache.writebacks::.writebacks       538933                       # number of writebacks
system.cpu.dcache.writebacks::total            538933                       # number of writebacks
system.cpu.dcache.demand_mshr_hits::.cpu.data        37495                       # number of demand (read+write) MSHR hits
system.cpu.dcache.demand_mshr_hits::total        37495                       # number of demand (read+write) MSHR hits
system.cpu.dcache.overall_mshr_hits::.cpu.data        37495                       # number of overall MSHR hits
system.cpu.dcache.overall_mshr_hits::total        37495                       # number of overall MSHR hits
system.cpu.dcache.demand_mshr_misses::.cpu.data       570626                       # number of demand (read+write) MSHR misses
system.cpu.dcache.demand_mshr_misses::total       570626                       # number of demand (read+write) MSHR misses
system.cpu.dcache.overall_mshr_misses::.cpu.data       574590                       # number of overall MSHR misses
system.cpu.dcache.overall_mshr_misses::total       574590                       # number of overall MSHR misses
system.cpu.dcache.demand_mshr_miss_latency::.cpu.data  15285845000                       # number of demand (read+write) MSHR miss cycles
system.cpu.dcache.demand_mshr_miss_latency::total  15285845000                       # number of demand (read+write) MSHR miss cycles
system.cpu.dcache.overall_mshr_miss_latency::.cpu.data  15639858500                       # number of overall MSHR miss cycles
system.cpu.dcache.overall_mshr_miss_latency::total  15639858500                       # number of overall MSHR miss cycles
system.cpu.dcache.demand_mshr_miss_rate::.cpu.data     0.010962                       # mshr miss rate for demand accesses
system.cpu.dcache.demand_mshr_miss_rate::total     0.010962                       # mshr miss rate for demand accesses
system.cpu.dcache.overall_mshr_miss_rate::.cpu.data     0.011037                       # mshr miss rate for overall accesses
system.cpu.dcache.overall_mshr_miss_rate::total     0.011037                       # mshr miss rate for overall accesses
system.cpu.dcache.demand_avg_mshr_miss_latency::.cpu.data 26787.852289                       # average overall mshr miss latency
system.cpu.dcache.demand_avg_mshr_miss_latency::total 26787.852289                       # average overall mshr miss latency
system.cpu.dcache.overall_avg_mshr_miss_latency::.cpu.data 27219.162359                       # average overall mshr miss latency
system.cpu.dcache.overall_avg_mshr_miss_latency::total 27219.162359                       # average overall mshr miss latency
system.cpu.dcache.replacements                 573566                       # number of replacements
system.cpu.dcache.ReadReq_hits::.cpu.data     40796585                       # number of ReadReq hits
system.cpu.dcache.ReadReq_hits::total        40796585                       # number of ReadReq hits
system.cpu.dcache.ReadReq_misses::.cpu.data       307210                       # number of ReadReq misses
system.cpu.dcache.ReadReq_misses::total        307210                       # number of ReadReq misses
system.cpu.dcache.ReadReq_miss_latency::.cpu.data   6145748500                       # number of ReadReq miss cycles
system.cpu.dcache.ReadReq_miss_latency::total   6145748500                       # number of ReadReq miss cycles
system.cpu.dcache.ReadReq_accesses::.cpu.data     41103795                       # number of ReadReq accesses(hits+misses)
system.cpu.dcache.ReadReq_accesses::total     41103795                       # number of ReadReq accesses(hits+misses)
system.cpu.dcache.ReadReq_miss_rate::.cpu.data     0.007474                       # miss rate for ReadReq accesses
system.cpu.dcache.ReadReq_miss_rate::total     0.007474                       # miss rate for ReadReq accesses
system.cpu.dcache.ReadReq_avg_miss_latency::.cpu.data 20005.040526                       # average ReadReq miss latency
system.cpu.dcache.ReadReq_avg_miss_latency::total 20005.040526                       # average ReadReq miss latency
system.cpu.dcache.ReadReq_mshr_hits::.cpu.data         4073                       # number of ReadReq MSHR hits
system.cpu.dcache.ReadReq_mshr_hits::total         4073                       # number of ReadReq MSHR hits
system.cpu.dcache.ReadReq_mshr_misses::.cpu.data       303137                       # number of ReadReq MSHR misses
system.cpu.dcache.ReadReq_mshr_misses::total       303137                       # number of ReadReq MSHR misses
system.cpu.dcache.ReadReq_mshr_miss_latency::.cpu.data   5650831000                       # number of ReadReq MSHR miss cycles
system.cpu.dcache.ReadReq_mshr_miss_latency::total   5650831000                       # number of ReadReq MSHR miss cycles
system.cpu.dcache.ReadReq_mshr_miss_rate::.cpu.data     0.007375                       # mshr miss rate for ReadReq accesses
system.cpu.dcache.ReadReq_mshr_miss_rate::total     0.007375                       # mshr miss rate for ReadReq accesses
system.cpu.dcache.ReadReq_avg_mshr_miss_latency::.cpu.data 18641.178741                       # average ReadReq mshr miss latency
system.cpu.dcache.ReadReq_avg_mshr_miss_latency::total 18641.178741                       # average ReadReq mshr miss latency
system.cpu.dcache.WriteReq_hits::.cpu.data     10648163                       # number of WriteReq hits
system.cpu.dcache.WriteReq_hits::total       10648163                       # number of WriteReq hits
system.cpu.dcache.WriteReq_misses::.cpu.data       300911                       # number of WriteReq misses
system.cpu.dcache.WriteReq_misses::total       300911                       # number of WriteReq misses
system.cpu.dcache.WriteReq_miss_latency::.cpu.data  12216290500                       # number of WriteReq miss cycles
system.cpu.dcache.WriteReq_miss_latency::total  12216290500                       # number of WriteReq miss cycles
system.cpu.dcache.WriteReq_accesses::.cpu.data     10949074                       # number of WriteReq accesses(hits+misses)
system.cpu.dcache.WriteReq_accesses::total     10949074                       # number of WriteReq accesses(hits+misses)
system.cpu.dcache.WriteReq_miss_rate::.cpu.data     0.027483                       # miss rate for WriteReq accesses
system.cpu.dcache.WriteReq_miss_rate::total     0.027483                       # miss rate for WriteReq accesses
system.cpu.dcache.WriteReq_avg_miss_latency::.cpu.data 40597.686691                       # average WriteReq miss latency
system.cpu.dcache.WriteReq_avg_miss_latency::total 40597.686691                       # average WriteReq miss latency
system.cpu.dcache.WriteReq_mshr_hits::.cpu.data        33422                       # number of WriteReq MSHR hits
system.cpu.dcache.WriteReq_mshr_hits::total        33422                       # number of WriteReq MSHR hits
system.cpu.dcache.WriteReq_mshr_misses::.cpu.data       267489                       # number of WriteReq MSHR misses
system.cpu.dcache.WriteReq_mshr_misses::total       267489                       # number of WriteReq MSHR misses
system.cpu.dcache.WriteReq_mshr_miss_latency::.cpu.data   9635014000                       # number of WriteReq MSHR miss cycles
system.cpu.dcache.WriteReq_mshr_miss_latency::total   9635014000                       # number of WriteReq MSHR miss cycles
system.cpu.dcache.WriteReq_mshr_miss_rate::.cpu.data     0.024430                       # mshr miss rate for WriteReq accesses
system.cpu.dcache.WriteReq_mshr_miss_rate::total     0.024430                       # mshr miss rate for WriteReq accesses
system.cpu.dcache.WriteReq_avg_mshr_miss_latency::.cpu.data 36020.225131                       # average WriteReq mshr miss latency
system.cpu.dcache.WriteReq_avg_mshr_miss_latency::total 36020.225131                       # average WriteReq mshr miss latency
system.cpu.dcache.SoftPFReq_hits::.cpu.data          580                       # number of SoftPFReq hits
system.cpu.dcache.SoftPFReq_hits::total           580                       # number of SoftPFReq hits
system.cpu.dcache.SoftPFReq_misses::.cpu.data         7839                       # number of SoftPFReq misses
system.cpu.dcache.SoftPFReq_misses::total         7839                       # number of SoftPFReq misses
system.cpu.dcache.SoftPFReq_accesses::.cpu.data         8419                       # number of SoftPFReq accesses(hits+misses)
system.cpu.dcache.SoftPFReq_accesses::total         8419                       # number of SoftPFReq accesses(hits+misses)
system.cpu.dcache.SoftPFReq_miss_rate::.cpu.data     0.931108                       # miss rate for SoftPFReq accesses
system.cpu.dcache.SoftPFReq_miss_rate::total     0.931108                       # miss rate for SoftPFReq accesses
system.cpu.dcache.SoftPFReq_mshr_misses::.cpu.data         3964                       # number of SoftPFReq MSHR misses
system.cpu.dcache.SoftPFReq_mshr_misses::total         3964                       # number of SoftPFReq MSHR misses
system.cpu.dcache.SoftPFReq_mshr_miss_latency::.cpu.data    354013500                       # number of SoftPFReq MSHR miss cycles
system.cpu.dcache.SoftPFReq_mshr_miss_latency::total    354013500                       # number of SoftPFReq MSHR miss cycles
system.cpu.dcache.SoftPFReq_mshr_miss_rate::.cpu.data     0.470840                       # mshr miss rate for SoftPFReq accesses
system.cpu.dcache.SoftPFReq_mshr_miss_rate::total     0.470840                       # mshr miss rate for SoftPFReq accesses
system.cpu.dcache.SoftPFReq_avg_mshr_miss_latency::.cpu.data 89307.139253                       # average SoftPFReq mshr miss latency
system.cpu.dcache.SoftPFReq_avg_mshr_miss_latency::total 89307.139253                       # average SoftPFReq mshr miss latency
system.cpu.dcache.LoadLockedReq_hits::.cpu.data           38                       # number of LoadLockedReq hits
system.cpu.dcache.LoadLockedReq_hits::total           38                       # number of LoadLockedReq hits
system.cpu.dcache.LoadLockedReq_accesses::.cpu.data           38                       # number of LoadLockedReq accesses(hits+misses)
system.cpu.dcache.LoadLockedReq_accesses::total           38                       # number of LoadLockedReq accesses(hits+misses)
system.cpu.dcache.StoreCondReq_hits::.cpu.data           38                       # number of StoreCondReq hits
system.cpu.dcache.StoreCondReq_hits::total           38                       # number of StoreCondReq hits
system.cpu.dcache.StoreCondReq_accesses::.cpu.data           38                       # number of StoreCondReq accesses(hits+misses)
system.cpu.dcache.StoreCondReq_accesses::total           38                       # number of StoreCondReq accesses(hits+misses)
system.cpu.dcache.power_state.pwrStateResidencyTicks::UNDEFINED  81034522000                       # Cumulative time (in ticks) in various power states
system.cpu.dcache.tags.tagsinuse          1005.732914                       # Cycle average of tags in use
system.cpu.dcache.tags.total_refs            52019994                       # Total number of references to valid blocks.
system.cpu.dcache.tags.sampled_refs            574590                       # Sample count of references to valid blocks.
system.cpu.dcache.tags.avg_refs             90.534110                       # Average number of references to valid blocks.
system.cpu.dcache.tags.warmup_cycle            186500                       # Cycle when the warmup percentage was hit.
system.cpu.dcache.tags.occ_blocks::.cpu.data  1005.732914                       # Average occupied blocks per requestor
system.cpu.dcache.tags.occ_percent::.cpu.data     0.982161                       # Average percentage of cache occupancy
system.cpu.dcache.tags.occ_percent::total     0.982161                       # Average percentage of cache occupancy
system.cpu.dcache.tags.occ_task_id_blocks::1024         1024                       # Occupied blocks per task id
system.cpu.dcache.tags.age_task_id_blocks_1024::0          161                       # Occupied blocks per task id
system.cpu.dcache.tags.age_task_id_blocks_1024::1          452                       # Occupied blocks per task id
system.cpu.dcache.tags.age_task_id_blocks_1024::2          410                       # Occupied blocks per task id
system.cpu.dcache.tags.age_task_id_blocks_1024::3            1                       # Occupied blocks per task id
system.cpu.dcache.tags.occ_task_id_percent::1024            1                       # Percentage of cache occupancy per task id
system.cpu.dcache.tags.tag_accesses          52635954                       # Number of tag accesses
system.cpu.dcache.tags.data_accesses         52635954                       # Number of data accesses
system.cpu.dcache.tags.power_state.pwrStateResidencyTicks::UNDEFINED  81034522000                       # Cumulative time (in ticks) in various power states
system.cpu.dtb.instHits                             0                       # ITB inst hits
system.cpu.dtb.instMisses                           0                       # ITB inst misses
system.cpu.dtb.readHits                             0                       # DTB read hits
system.cpu.dtb.readMisses                           0                       # DTB read misses
system.cpu.dtb.writeHits                            0                       # DTB write hits
system.cpu.dtb.writeMisses                          0                       # DTB write misses
system.cpu.dtb.inserts                              0                       # Number of times an entry is inserted into the TLB
system.cpu.dtb.flushTlb                             0                       # Number of times complete TLB was flushed
system.cpu.dtb.flushTlbMva                          0                       # Number of times TLB was flushed by MVA
system.cpu.dtb.flushTlbMvaAsid                      0                       # Number of times TLB was flushed by MVA & ASID
system.cpu.dtb.flushTlbAsid                         0                       # Number of times TLB was flushed by ASID
system.cpu.dtb.flushedEntries                       0                       # Number of entries that have been flushed from TLB
system.cpu.dtb.alignFaults                          0                       # Number of TLB faults due to alignment restrictions
system.cpu.dtb.prefetchFaults                       0                       # Number of TLB faults due to prefetch
system.cpu.dtb.domainFaults                         0                       # Number of TLB faults due to domain restrictions
system.cpu.dtb.permsFaults                          0                       # Number of TLB faults due to permissions restrictions
system.cpu.dtb.readAccesses                         0                       # DTB read accesses
system.cpu.dtb.writeAccesses                        0                       # DTB write accesses
system.cpu.dtb.instAccesses                         0                       # ITB inst accesses
system.cpu.dtb.hits                                 0                       # Total TLB (inst and data) hits
system.cpu.dtb.misses                               0                       # Total TLB (inst and data) misses
system.cpu.dtb.accesses                             0                       # Total TLB (inst and data) accesses
system.cpu.dtb.stage2_mmu.stage2_tlb.instHits            0                       # ITB inst hits
system.cpu.dtb.stage2_mmu.stage2_tlb.instMisses            0                       # ITB inst misses
system.cpu.dtb.stage2_mmu.stage2_tlb.readHits            0                       # DTB read hits
system.cpu.dtb.stage2_mmu.stage2_tlb.readMisses            0                       # DTB read misses
system.cpu.dtb.stage2_mmu.stage2_tlb.writeHits            0                       # DTB write hits
system.cpu.dtb.stage2_mmu.stage2_tlb.writeMisses            0                       # DTB write misses
system.cpu.dtb.stage2_mmu.stage2_tlb.inserts            0                       # Number of times an entry is inserted into the TLB
system.cpu.dtb.stage2_mmu.stage2_tlb.flushTlb            0                       # Number of times complete TLB was flushed
system.cpu.dtb.stage2_mmu.stage2_tlb.flushTlbMva            0                       # Number of times TLB was flushed by MVA
system.cpu.dtb.stage2_mmu.stage2_tlb.flushTlbMvaAsid            0                       # Number of times TLB was flushed by MVA & ASID
system.cpu.dtb.stage2_mmu.stage2_tlb.flushTlbAsid            0                       # Number of times TLB was flushed by ASID
system.cpu.dtb.stage2_mmu.stage2_tlb.flushedEntries            0                       # Number of entries that have been flushed from TLB
system.cpu.dtb.stage2_mmu.stage2_tlb.alignFaults            0                       # Number of TLB faults due to alignment restrictions
system.cpu.dtb.stage2_mmu.stage2_tlb.prefetchFaults            0                       # Number of TLB faults due to prefetch
system.cpu.dtb.stage2_mmu.stage2_tlb.domainFaults            0                       # Number of TLB faults due to domain restrictions
system.cpu.dtb.stage2_mmu.stage2_tlb.permsFaults            0                       # Number of TLB faults due to permissions restrictions
system.cpu.dtb.stage2_mmu.stage2_tlb.readAccesses            0                       # DTB read accesses
system.cpu.dtb.stage2_mmu.stage2_tlb.writeAccesses            0                       # DTB write accesses
system.cpu.dtb.stage2_mmu.stage2_tlb.instAccesses            0                       # ITB inst accesses
system.cpu.dtb.stage2_mmu.stage2_tlb.hits            0                       # Total TLB (inst and data) hits
system.cpu.dtb.stage2_mmu.stage2_tlb.misses            0                       # Total TLB (inst and data) misses
system.cpu.dtb.stage2_mmu.stage2_tlb.accesses            0                       # Total TLB (inst and data) accesses
system.cpu.dtb.stage2_mmu.stage2_tlb.walker.walks            0                       # Table walker walks requested
system.cpu.dtb.stage2_mmu.stage2_tlb.walker.requestOrigin_Requested::Data            0                       # Table walker requests started/completed, data/inst
system.cpu.dtb.stage2_mmu.stage2_tlb.walker.requestOrigin_Requested::Inst            0                       # Table walker requests started/completed, data/inst
system.cpu.dtb.stage2_mmu.stage2_tlb.walker.requestOrigin_Requested::total            0                       # Table walker requests started/completed, data/inst
system.cpu.dtb.stage2_mmu.stage2_tlb.walker.requestOrigin_Completed::Data            0                       # Table walker requests started/completed, data/inst
system.cpu.dtb.stage2_mmu.stage2_tlb.walker.requestOrigin_Completed::Inst            0                       # Table walker requests started/completed, data/inst
system.cpu.dtb.stage2_mmu.stage2_tlb.walker.requestOrigin_Completed::total            0                       # Table walker requests started/completed, data/inst
system.cpu.dtb.stage2_mmu.stage2_tlb.walker.requestOrigin::total            0                       # Table walker requests started/completed, data/inst
system.cpu.dtb.stage2_mmu.stage2_tlb.walker.power_state.pwrStateResidencyTicks::UNDEFINED  81034522000                       # Cumulative time (in ticks) in various power states
system.cpu.dtb.walker.walks                         0                       # Table walker walks requested
system.cpu.dtb.walker.requestOrigin_Requested::Data            0                       # Table walker requests started/completed, data/inst
system.cpu.dtb.walker.requestOrigin_Requested::Inst            0                       # Table walker requests started/completed, data/inst
system.cpu.dtb.walker.requestOrigin_Requested::total            0                       # Table walker requests started/completed, data/inst
system.cpu.dtb.walker.requestOrigin_Completed::Data            0                       # Table walker requests started/completed, data/inst
system.cpu.dtb.walker.requestOrigin_Completed::Inst            0                       # Table walker requests started/completed, data/inst
system.cpu.dtb.walker.requestOrigin_Completed::total            0                       # Table walker requests started/completed, data/inst
system.cpu.dtb.walker.requestOrigin::total            0                       # Table walker requests started/completed, data/inst
system.cpu.dtb.walker.power_state.pwrStateResidencyTicks::UNDEFINED  81034522000                       # Cumulative time (in ticks) in various power states
system.cpu.fetch2.intInstructions            42688184                       # Number of integer instructions successfully decoded
system.cpu.fetch2.fpInstructions                    0                       # Number of floating point instructions successfully decoded
system.cpu.fetch2.vecInstructions                   0                       # Number of SIMD instructions successfully decoded
system.cpu.fetch2.loadInstructions           43477271                       # Number of memory load instructions successfully decoded
system.cpu.fetch2.storeInstructions          11026047                       # Number of memory store instructions successfully decoded
system.cpu.fetch2.amoInstructions                   0                       # Number of memory atomic instructions successfully decoded
system.cpu.icache.demand_hits::.cpu.inst      8530178                       # number of demand (read+write) hits
system.cpu.icache.demand_hits::total          8530178                       # number of demand (read+write) hits
system.cpu.icache.overall_hits::.cpu.inst      8530178                       # number of overall hits
system.cpu.icache.overall_hits::total         8530178                       # number of overall hits
system.cpu.icache.demand_misses::.cpu.inst          437                       # number of demand (read+write) misses
system.cpu.icache.demand_misses::total            437                       # number of demand (read+write) misses
system.cpu.icache.overall_misses::.cpu.inst          437                       # number of overall misses
system.cpu.icache.overall_misses::total           437                       # number of overall misses
system.cpu.icache.demand_miss_latency::.cpu.inst     36156000                       # number of demand (read+write) miss cycles
system.cpu.icache.demand_miss_latency::total     36156000                       # number of demand (read+write) miss cycles
system.cpu.icache.overall_miss_latency::.cpu.inst     36156000                       # number of overall miss cycles
system.cpu.icache.overall_miss_latency::total     36156000                       # number of overall miss cycles
system.cpu.icache.demand_accesses::.cpu.inst      8530615                       # number of demand (read+write) accesses
system.cpu.icache.demand_accesses::total      8530615                       # number of demand (read+write) accesses
system.cpu.icache.overall_accesses::.cpu.inst      8530615                       # number of overall (read+write) accesses
system.cpu.icache.overall_accesses::total      8530615                       # number of overall (read+write) accesses
system.cpu.icache.demand_miss_rate::.cpu.inst     0.000051                       # miss rate for demand accesses
system.cpu.icache.demand_miss_rate::total     0.000051                       # miss rate for demand accesses
system.cpu.icache.overall_miss_rate::.cpu.inst     0.000051                       # miss rate for overall accesses
system.cpu.icache.overall_miss_rate::total     0.000051                       # miss rate for overall accesses
system.cpu.icache.demand_avg_miss_latency::.cpu.inst 82736.842105                       # average overall miss latency
system.cpu.icache.demand_avg_miss_latency::total 82736.842105                       # average overall miss latency
system.cpu.icache.overall_avg_miss_latency::.cpu.inst 82736.842105                       # average overall miss latency
system.cpu.icache.overall_avg_miss_latency::total 82736.842105                       # average overall miss latency
system.cpu.icache.blocked_cycles::no_mshrs            0                       # number of cycles access was blocked
system.cpu.icache.blocked_cycles::no_targets            0                       # number of cycles access was blocked
system.cpu.icache.blocked::no_mshrs                 0                       # number of cycles access was blocked
system.cpu.icache.blocked::no_targets               0                       # number of cycles access was blocked
system.cpu.icache.avg_blocked_cycles::no_mshrs          nan                       # average number of cycles each access was blocked
system.cpu.icache.avg_blocked_cycles::no_targets          nan                       # average number of cycles each access was blocked
system.cpu.icache.writebacks::.writebacks           38                       # number of writebacks
system.cpu.icache.writebacks::total                38                       # number of writebacks
system.cpu.icache.demand_mshr_misses::.cpu.inst          437                       # number of demand (read+write) MSHR misses
system.cpu.icache.demand_mshr_misses::total          437                       # number of demand (read+write) MSHR misses
system.cpu.icache.overall_mshr_misses::.cpu.inst          437                       # number of overall MSHR misses
system.cpu.icache.overall_mshr_misses::total          437                       # number of overall MSHR misses
system.cpu.icache.demand_mshr_miss_latency::.cpu.inst     35719000                       # number of demand (read+write) MSHR miss cycles
system.cpu.icache.demand_mshr_miss_latency::total     35719000                       # number of demand (read+write) MSHR miss cycles
system.cpu.icache.overall_mshr_miss_latency::.cpu.inst     35719000                       # number of overall MSHR miss cycles
system.cpu.icache.overall_mshr_miss_latency::total     35719000                       # number of overall MSHR miss cycles
system.cpu.icache.demand_mshr_miss_rate::.cpu.inst     0.000051                       # mshr miss rate for demand accesses
system.cpu.icache.demand_mshr_miss_rate::total     0.000051                       # mshr miss rate for demand accesses
system.cpu.icache.overall_mshr_miss_rate::.cpu.inst     0.000051                       # mshr miss rate for overall accesses
system.cpu.icache.overall_mshr_miss_rate::total     0.000051                       # mshr miss rate for overall accesses
system.cpu.icache.demand_avg_mshr_miss_latency::.cpu.inst 81736.842105                       # average overall mshr miss latency
system.cpu.icache.demand_avg_mshr_miss_latency::total 81736.842105                       # average overall mshr miss latency
system.cpu.icache.overall_avg_mshr_miss_latency::.cpu.inst 81736.842105                       # average overall mshr miss latency
system.cpu.icache.overall_avg_mshr_miss_latency::total 81736.842105                       # average overall mshr miss latency
system.cpu.icache.replacements                     38                       # number of replacements
system.cpu.icache.ReadReq_hits::.cpu.inst      8530178                       # number of ReadReq hits
system.cpu.icache.ReadReq_hits::total         8530178                       # number of ReadReq hits
system.cpu.icache.ReadReq_misses::.cpu.inst          437                       # number of ReadReq misses
system.cpu.icache.ReadReq_misses::total           437                       # number of ReadReq misses
system.cpu.icache.ReadReq_miss_latency::.cpu.inst     36156000                       # number of ReadReq miss cycles
system.cpu.icache.ReadReq_miss_latency::total     36156000                       # number of ReadReq miss cycles
system.cpu.icache.ReadReq_accesses::.cpu.inst      8530615                       # number of ReadReq accesses(hits+misses)
system.cpu.icache.ReadReq_accesses::total      8530615                       # number of ReadReq accesses(hits+misses)
system.cpu.icache.ReadReq_miss_rate::.cpu.inst     0.000051                       # miss rate for ReadReq accesses
system.cpu.icache.ReadReq_miss_rate::total     0.000051                       # miss rate for ReadReq accesses
system.cpu.icache.ReadReq_avg_miss_latency::.cpu.inst 82736.842105                       # average ReadReq miss latency
system.cpu.icache.ReadReq_avg_miss_latency::total 82736.842105                       # average ReadReq miss latency
system.cpu.icache.ReadReq_mshr_misses::.cpu.inst          437                       # number of ReadReq MSHR misses
system.cpu.icache.ReadReq_mshr_misses::total          437                       # number of ReadReq MSHR misses
system.cpu.icache.ReadReq_mshr_miss_latency::.cpu.inst     35719000                       # number of ReadReq MSHR miss cycles
system.cpu.icache.ReadReq_mshr_miss_latency::total     35719000                       # number of ReadReq MSHR miss cycles
system.cpu.icache.ReadReq_mshr_miss_rate::.cpu.inst     0.000051                       # mshr miss rate for ReadReq accesses
system.cpu.icache.ReadReq_mshr_miss_rate::total     0.000051                       # mshr miss rate for ReadReq accesses
system.cpu.icache.ReadReq_avg_mshr_miss_latency::.cpu.inst 81736.842105                       # average ReadReq mshr miss latency
system.cpu.icache.ReadReq_avg_mshr_miss_latency::total 81736.842105                       # average ReadReq mshr miss latency
system.cpu.icache.power_state.pwrStateResidencyTicks::UNDEFINED  81034522000                       # Cumulative time (in ticks) in various power states
system.cpu.icache.tags.tagsinuse           336.307451                       # Cycle average of tags in use
system.cpu.icache.tags.total_refs             8530615                       # Total number of references to valid blocks.
system.cpu.icache.tags.sampled_refs               437                       # Sample count of references to valid blocks.
system.cpu.icache.tags.avg_refs          19520.858124                       # Average number of references to valid blocks.
system.cpu.icache.tags.warmup_cycle             92500                       # Cycle when the warmup percentage was hit.
system.cpu.icache.tags.occ_blocks::.cpu.inst   336.307451                       # Average occupied blocks per requestor
system.cpu.icache.tags.occ_percent::.cpu.inst     0.328425                       # Average percentage of cache occupancy
system.cpu.icache.tags.occ_percent::total     0.328425                       # Average percentage of cache occupancy
system.cpu.icache.tags.occ_task_id_blocks::1024          399                       # Occupied blocks per task id
system.cpu.icache.tags.age_task_id_blocks_1024::3           52                       # Occupied blocks per task id
system.cpu.icache.tags.age_task_id_blocks_1024::4          347                       # Occupied blocks per task id
system.cpu.icache.tags.occ_task_id_percent::1024     0.389648                       # Percentage of cache occupancy per task id
system.cpu.icache.tags.tag_accesses          17061667                       # Number of tag accesses
system.cpu.icache.tags.data_accesses         17061667                       # Number of data accesses
system.cpu.icache.tags.power_state.pwrStateResidencyTicks::UNDEFINED  81034522000                       # Cumulative time (in ticks) in various power states
system.cpu.itb.instHits                             0                       # ITB inst hits
system.cpu.itb.instMisses                           0                       # ITB inst misses
system.cpu.itb.readHits                             0                       # DTB read hits
system.cpu.itb.readMisses                           0                       # DTB read misses
system.cpu.itb.writeHits                            0                       # DTB write hits
system.cpu.itb.writeMisses                          0                       # DTB write misses
system.cpu.itb.inserts                              0                       # Number of times an entry is inserted into the TLB
system.cpu.itb.flushTlb                             0                       # Number of times complete TLB was flushed
system.cpu.itb.flushTlbMva                          0                       # Number of times TLB was flushed by MVA
system.cpu.itb.flushTlbMvaAsid                      0                       # Number of times TLB was flushed by MVA & ASID
system.cpu.itb.flushTlbAsid                         0                       # Number of times TLB was flushed by ASID
system.cpu.itb.flushedEntries                       0                       # Number of entries that have been flushed from TLB
system.cpu.itb.alignFaults                          0                       # Number of TLB faults due to alignment restrictions
system.cpu.itb.prefetchFaults                       0                       # Number of TLB faults due to prefetch
system.cpu.itb.domainFaults                         0                       # Number of TLB faults due to domain restrictions
system.cpu.itb.permsFaults                          0                       # Number of TLB faults due to permissions restrictions
system.cpu.itb.readAccesses                         0                       # DTB read accesses
system.cpu.itb.writeAccesses                        0                       # DTB write accesses
system.cpu.itb.instAccesses                         0                       # ITB inst accesses
system.cpu.itb.hits                                 0                       # Total TLB (inst and data) hits
system.cpu.itb.misses                               0                       # Total TLB (inst and data) misses
system.cpu.itb.accesses                             0                       # Total TLB (inst and data) accesses
system.cpu.itb.stage2_mmu.stage2_tlb.instHits            0                       # ITB inst hits
system.cpu.itb.stage2_mmu.stage2_tlb.instMisses            0                       # ITB inst misses
system.cpu.itb.stage2_mmu.stage2_tlb.readHits            0                       # DTB read hits
system.cpu.itb.stage2_mmu.stage2_tlb.readMisses            0                       # DTB read misses
system.cpu.itb.stage2_mmu.stage2_tlb.writeHits            0                       # DTB write hits
system.cpu.itb.stage2_mmu.stage2_tlb.writeMisses            0                       # DTB write misses
system.cpu.itb.stage2_mmu.stage2_tlb.inserts            0                       # Number of times an entry is inserted into the TLB
system.cpu.itb.stage2_mmu.stage2_tlb.flushTlb            0                       # Number of times complete TLB was flushed
system.cpu.itb.stage2_mmu.stage2_tlb.flushTlbMva            0                       # Number of times TLB was flushed by MVA
system.cpu.itb.stage2_mmu.stage2_tlb.flushTlbMvaAsid            0                       # Number of times TLB was flushed by MVA & ASID
system.cpu.itb.stage2_mmu.stage2_tlb.flushTlbAsid            0                       # Number of times TLB was flushed by ASID
system.cpu.itb.stage2_mmu.stage2_tlb.flushedEntries            0                       # Number of entries that have been flushed from TLB
system.cpu.itb.stage2_mmu.stage2_tlb.alignFaults            0                       # Number of TLB faults due to alignment restrictions
system.cpu.itb.stage2_mmu.stage2_tlb.prefetchFaults            0                       # Number of TLB faults due to prefetch
system.cpu.itb.stage2_mmu.stage2_tlb.domainFaults            0                       # Number of TLB faults due to domain restrictions
system.cpu.itb.stage2_mmu.stage2_tlb.permsFaults            0                       # Number of TLB faults due to permissions restrictions
system.cpu.itb.stage2_mmu.stage2_tlb.readAccesses            0                       # DTB read accesses
system.cpu.itb.stage2_mmu.stage2_tlb.writeAccesses            0                       # DTB write accesses
system.cpu.itb.stage2_mmu.stage2_tlb.instAccesses            0                       # ITB inst accesses
system.cpu.itb.stage2_mmu.stage2_tlb.hits            0                       # Total TLB (inst and data) hits
system.cpu.itb.stage2_mmu.stage2_tlb.misses            0                       # Total TLB (inst and data) misses
system.cpu.itb.stage2_mmu.stage2_tlb.accesses            0                       # Total TLB (inst and data) accesses
system.cpu.itb.stage2_mmu.stage2_tlb.walker.walks            0                       # Table walker walks requested
system.cpu.itb.stage2_mmu.stage2_tlb.walker.requestOrigin_Requested::Data            0                       # Table walker requests started/completed, data/inst
system.cpu.itb.stage2_mmu.stage2_tlb.walker.requestOrigin_Requested::Inst            0                       # Table walker requests started/completed, data/inst
system.cpu.itb.stage2_mmu.stage2_tlb.walker.requestOrigin_Requested::total            0                       # Table walker requests started/completed, data/inst
system.cpu.itb.stage2_mmu.stage2_tlb.walker.requestOrigin_Completed::Data            0                       # Table walker requests started/completed, data/inst
system.cpu.itb.stage2_mmu.stage2_tlb.walker.requestOrigin_Completed::Inst            0                       # Table walker requests started/completed, data/inst
system.cpu.itb.stage2_mmu.stage2_tlb.walker.requestOrigin_Completed::total            0                       # Table walker requests started/completed, data/inst
system.cpu.itb.stage2_mmu.stage2_tlb.walker.requestOrigin::total            0                       # Table walker requests started/completed, data/inst
system.cpu.itb.stage2_mmu.stage2_tlb.walker.power_state.pwrStateResidencyTicks::UNDEFINED  81034522000                       # Cumulative time (in ticks) in various power states
system.cpu.itb.walker.walks                         0                       # Table walker walks requested
system.cpu.itb.walker.requestOrigin_Requested::Data            0                       # Table walker requests started/completed, data/inst
system.cpu.itb.walker.requestOrigin_Requested::Inst            0                       # Table walker requests started/completed, data/inst
system.cpu.itb.walker.requestOrigin_Requested::total            0                       # Table walker requests started/completed, data/inst
system.cpu.itb.walker.requestOrigin_Completed::Data            0                       # Table walker requests started/completed, data/inst
system.cpu.itb.walker.requestOrigin_Completed::Inst            0                       # Table walker requests started/completed, data/inst
system.cpu.itb.walker.requestOrigin_Completed::total            0                       # Table walker requests started/completed, data/inst
system.cpu.itb.walker.requestOrigin::total            0                       # Table walker requests started/completed, data/inst
system.cpu.itb.walker.power_state.pwrStateResidencyTicks::UNDEFINED  81034522000                       # Cumulative time (in ticks) in various power states
system.cpu.power_state.pwrStateResidencyTicks::ON  81034522000                       # Cumulative time (in ticks) in various power states
system.cpu.thread17522.numInsts             100000001                       # Number of Instructions committed
system.cpu.thread17522.numOps               100196356                       # Number of Ops committed
system.cpu.thread17522.numMemRefs                   0                       # Number of Memory References
system.cpu_clk_domain.clock                       500                       # Clock period in ticks
system.cpu_voltage_domain.voltage                   1                       # Voltage in Volts
system.l2.demand_hits::.cpu.inst                   25                       # number of demand (read+write) hits
system.l2.demand_hits::.cpu.data               464715                       # number of demand (read+write) hits
system.l2.demand_hits::total                   464740                       # number of demand (read+write) hits
system.l2.overall_hits::.cpu.inst                  25                       # number of overall hits
system.l2.overall_hits::.cpu.data              464715                       # number of overall hits
system.l2.overall_hits::total                  464740                       # number of overall hits
system.l2.demand_misses::.cpu.inst                412                       # number of demand (read+write) misses
system.l2.demand_misses::.cpu.data             109875                       # number of demand (read+write) misses
system.l2.demand_misses::total                 110287                       # number of demand (read+write) misses
system.l2.overall_misses::.cpu.inst               412                       # number of overall misses
system.l2.overall_misses::.cpu.data            109875                       # number of overall misses
system.l2.overall_misses::total                110287                       # number of overall misses
system.l2.demand_miss_latency::.cpu.inst     34765000                       # number of demand (read+write) miss cycles
system.l2.demand_miss_latency::.cpu.data   9795024000                       # number of demand (read+write) miss cycles
system.l2.demand_miss_latency::total       9829789000                       # number of demand (read+write) miss cycles
system.l2.overall_miss_latency::.cpu.inst     34765000                       # number of overall miss cycles
system.l2.overall_miss_latency::.cpu.data   9795024000                       # number of overall miss cycles
system.l2.overall_miss_latency::total      9829789000                       # number of overall miss cycles
system.l2.demand_accesses::.cpu.inst              437                       # number of demand (read+write) accesses
system.l2.demand_accesses::.cpu.data           574590                       # number of demand (read+write) accesses
system.l2.demand_accesses::total               575027                       # number of demand (read+write) accesses
system.l2.overall_accesses::.cpu.inst             437                       # number of overall (read+write) accesses
system.l2.overall_accesses::.cpu.data          574590                       # number of overall (read+write) accesses
system.l2.overall_accesses::total              575027                       # number of overall (read+write) accesses
system.l2.demand_miss_rate::.cpu.inst        0.942792                       # miss rate for demand accesses
system.l2.demand_miss_rate::.cpu.data        0.191223                       # miss rate for demand accesses
system.l2.demand_miss_rate::total            0.191794                       # miss rate for demand accesses
system.l2.overall_miss_rate::.cpu.inst       0.942792                       # miss rate for overall accesses
system.l2.overall_miss_rate::.cpu.data       0.191223                       # miss rate for overall accesses
system.l2.overall_miss_rate::total           0.191794                       # miss rate for overall accesses
system.l2.demand_avg_miss_latency::.cpu.inst 84381.067961                       # average overall miss latency
system.l2.demand_avg_miss_latency::.cpu.data 89146.976109                       # average overall miss latency
system.l2.demand_avg_miss_latency::total 89129.172069                       # average overall miss latency
system.l2.overall_avg_miss_latency::.cpu.inst 84381.067961                       # average overall miss latency
system.l2.overall_avg_miss_latency::.cpu.data 89146.976109                       # average overall miss latency
system.l2.overall_avg_miss_latency::total 89129.172069                       # average overall miss latency
system.l2.blocked_cycles::no_mshrs                  0                       # number of cycles access was blocked
system.l2.blocked_cycles::no_targets                0                       # number of cycles access was blocked
system.l2.blocked::no_mshrs                         0                       # number of cycles access was blocked
system.l2.blocked::no_targets                       0                       # number of cycles access was blocked
system.l2.avg_blocked_cycles::no_mshrs            nan                       # average number of cycles each access was blocked
system.l2.avg_blocked_cycles::no_targets          nan                       # average number of cycles each access was blocked
system.l2.writebacks::.writebacks               47329                       # number of writebacks
system.l2.writebacks::total                     47329                       # number of writebacks
system.l2.demand_mshr_hits::.cpu.data               3                       # number of demand (read+write) MSHR hits
system.l2.demand_mshr_hits::total                   3                       # number of demand (read+write) MSHR hits
system.l2.overall_mshr_hits::.cpu.data              3                       # number of overall MSHR hits
system.l2.overall_mshr_hits::total                  3                       # number of overall MSHR hits
system.l2.demand_mshr_misses::.cpu.inst           412                       # number of demand (read+write) MSHR misses
system.l2.demand_mshr_misses::.cpu.data        109872                       # number of demand (read+write) MSHR misses
system.l2.demand_mshr_misses::total            110284                       # number of demand (read+write) MSHR misses
system.l2.overall_mshr_misses::.cpu.inst          412                       # number of overall MSHR misses
system.l2.overall_mshr_misses::.cpu.data       109872                       # number of overall MSHR misses
system.l2.overall_mshr_misses::total           110284                       # number of overall MSHR misses
system.l2.demand_mshr_miss_latency::.cpu.inst     30645000                       # number of demand (read+write) MSHR miss cycles
system.l2.demand_mshr_miss_latency::.cpu.data   8696088000                       # number of demand (read+write) MSHR miss cycles
system.l2.demand_mshr_miss_latency::total   8726733000                       # number of demand (read+write) MSHR miss cycles
system.l2.overall_mshr_miss_latency::.cpu.inst     30645000                       # number of overall MSHR miss cycles
system.l2.overall_mshr_miss_latency::.cpu.data   8696088000                       # number of overall MSHR miss cycles
system.l2.overall_mshr_miss_latency::total   8726733000                       # number of overall MSHR miss cycles
system.l2.demand_mshr_miss_rate::.cpu.inst     0.942792                       # mshr miss rate for demand accesses
system.l2.demand_mshr_miss_rate::.cpu.data     0.191218                       # mshr miss rate for demand accesses
system.l2.demand_mshr_miss_rate::total       0.191789                       # mshr miss rate for demand accesses
system.l2.overall_mshr_miss_rate::.cpu.inst     0.942792                       # mshr miss rate for overall accesses
system.l2.overall_mshr_miss_rate::.cpu.data     0.191218                       # mshr miss rate for overall accesses
system.l2.overall_mshr_miss_rate::total      0.191789                       # mshr miss rate for overall accesses
system.l2.demand_avg_mshr_miss_latency::.cpu.inst 74381.067961                       # average overall mshr miss latency
system.l2.demand_avg_mshr_miss_latency::.cpu.data 79147.444299                       # average overall mshr miss latency
system.l2.demand_avg_mshr_miss_latency::total 79129.638025                       # average overall mshr miss latency
system.l2.overall_avg_mshr_miss_latency::.cpu.inst 74381.067961                       # average overall mshr miss latency
system.l2.overall_avg_mshr_miss_latency::.cpu.data 79147.444299                       # average overall mshr miss latency
system.l2.overall_avg_mshr_miss_latency::total 79129.638025                       # average overall mshr miss latency
system.l2.replacements                          77534                       # number of replacements
system.l2.WritebackDirty_hits::.writebacks       538933                       # number of WritebackDirty hits
system.l2.WritebackDirty_hits::total           538933                       # number of WritebackDirty hits
system.l2.WritebackDirty_accesses::.writebacks       538933                       # number of WritebackDirty accesses(hits+misses)
system.l2.WritebackDirty_accesses::total       538933                       # number of WritebackDirty accesses(hits+misses)
system.l2.WritebackClean_hits::.writebacks           38                       # number of WritebackClean hits
system.l2.WritebackClean_hits::total               38                       # number of WritebackClean hits
system.l2.WritebackClean_accesses::.writebacks           38                       # number of WritebackClean accesses(hits+misses)
system.l2.WritebackClean_accesses::total           38                       # number of WritebackClean accesses(hits+misses)
system.l2.ReadExReq_hits::.cpu.data            188349                       # number of ReadExReq hits
system.l2.ReadExReq_hits::total                188349                       # number of ReadExReq hits
system.l2.ReadExReq_misses::.cpu.data           79246                       # number of ReadExReq misses
system.l2.ReadExReq_misses::total               79246                       # number of ReadExReq misses
system.l2.ReadExReq_miss_latency::.cpu.data   7221178000                       # number of ReadExReq miss cycles
system.l2.ReadExReq_miss_latency::total    7221178000                       # number of ReadExReq miss cycles
system.l2.ReadExReq_accesses::.cpu.data        267595                       # number of ReadExReq accesses(hits+misses)
system.l2.ReadExReq_accesses::total            267595                       # number of ReadExReq accesses(hits+misses)
system.l2.ReadExReq_miss_rate::.cpu.data     0.296142                       # miss rate for ReadExReq accesses
system.l2.ReadExReq_miss_rate::total         0.296142                       # miss rate for ReadExReq accesses
system.l2.ReadExReq_avg_miss_latency::.cpu.data 91123.564596                       # average ReadExReq miss latency
system.l2.ReadExReq_avg_miss_latency::total 91123.564596                       # average ReadExReq miss latency
system.l2.ReadExReq_mshr_misses::.cpu.data        79246                       # number of ReadExReq MSHR misses
system.l2.ReadExReq_mshr_misses::total          79246                       # number of ReadExReq MSHR misses
system.l2.ReadExReq_mshr_miss_latency::.cpu.data   6428718000                       # number of ReadExReq MSHR miss cycles
system.l2.ReadExReq_mshr_miss_latency::total   6428718000                       # number of ReadExReq MSHR miss cycles
system.l2.ReadExReq_mshr_miss_rate::.cpu.data     0.296142                       # mshr miss rate for ReadExReq accesses
system.l2.ReadExReq_mshr_miss_rate::total     0.296142                       # mshr miss rate for ReadExReq accesses
system.l2.ReadExReq_avg_mshr_miss_latency::.cpu.data 81123.564596                       # average ReadExReq mshr miss latency
system.l2.ReadExReq_avg_mshr_miss_latency::total 81123.564596                       # average ReadExReq mshr miss latency
system.l2.ReadCleanReq_hits::.cpu.inst             25                       # number of ReadCleanReq hits
system.l2.ReadCleanReq_hits::total                 25                       # number of ReadCleanReq hits
system.l2.ReadCleanReq_misses::.cpu.inst          412                       # number of ReadCleanReq misses
system.l2.ReadCleanReq_misses::total              412                       # number of ReadCleanReq misses
system.l2.ReadCleanReq_miss_latency::.cpu.inst     34765000                       # number of ReadCleanReq miss cycles
system.l2.ReadCleanReq_miss_latency::total     34765000                       # number of ReadCleanReq miss cycles
system.l2.ReadCleanReq_accesses::.cpu.inst          437                       # number of ReadCleanReq accesses(hits+misses)
system.l2.ReadCleanReq_accesses::total            437                       # number of ReadCleanReq accesses(hits+misses)
system.l2.ReadCleanReq_miss_rate::.cpu.inst     0.942792                       # miss rate for ReadCleanReq accesses
system.l2.ReadCleanReq_miss_rate::total      0.942792                       # miss rate for ReadCleanReq accesses
system.l2.ReadCleanReq_avg_miss_latency::.cpu.inst 84381.067961                       # average ReadCleanReq miss latency
system.l2.ReadCleanReq_avg_miss_latency::total 84381.067961                       # average ReadCleanReq miss latency
system.l2.ReadCleanReq_mshr_misses::.cpu.inst          412                       # number of ReadCleanReq MSHR misses
system.l2.ReadCleanReq_mshr_misses::total          412                       # number of ReadCleanReq MSHR misses
system.l2.ReadCleanReq_mshr_miss_latency::.cpu.inst     30645000                       # number of ReadCleanReq MSHR miss cycles
system.l2.ReadCleanReq_mshr_miss_latency::total     30645000                       # number of ReadCleanReq MSHR miss cycles
system.l2.ReadCleanReq_mshr_miss_rate::.cpu.inst     0.942792                       # mshr miss rate for ReadCleanReq accesses
system.l2.ReadCleanReq_mshr_miss_rate::total     0.942792                       # mshr miss rate for ReadCleanReq accesses
system.l2.ReadCleanReq_avg_mshr_miss_latency::.cpu.inst 74381.067961                       # average ReadCleanReq mshr miss latency
system.l2.ReadCleanReq_avg_mshr_miss_latency::total 74381.067961                       # average ReadCleanReq mshr miss latency
system.l2.ReadSharedReq_hits::.cpu.data        276366                       # number of ReadSharedReq hits
system.l2.ReadSharedReq_hits::total            276366                       # number of ReadSharedReq hits
system.l2.ReadSharedReq_misses::.cpu.data        30629                       # number of ReadSharedReq misses
system.l2.ReadSharedReq_misses::total           30629                       # number of ReadSharedReq misses
system.l2.ReadSharedReq_miss_latency::.cpu.data   2573846000                       # number of ReadSharedReq miss cycles
system.l2.ReadSharedReq_miss_latency::total   2573846000                       # number of ReadSharedReq miss cycles
system.l2.ReadSharedReq_accesses::.cpu.data       306995                       # number of ReadSharedReq accesses(hits+misses)
system.l2.ReadSharedReq_accesses::total        306995                       # number of ReadSharedReq accesses(hits+misses)
system.l2.ReadSharedReq_miss_rate::.cpu.data     0.099770                       # miss rate for ReadSharedReq accesses
system.l2.ReadSharedReq_miss_rate::total     0.099770                       # miss rate for ReadSharedReq accesses
system.l2.ReadSharedReq_avg_miss_latency::.cpu.data 84032.975285                       # average ReadSharedReq miss latency
system.l2.ReadSharedReq_avg_miss_latency::total 84032.975285                       # average ReadSharedReq miss latency
system.l2.ReadSharedReq_mshr_hits::.cpu.data            3                       # number of ReadSharedReq MSHR hits
system.l2.ReadSharedReq_mshr_hits::total            3                       # number of ReadSharedReq MSHR hits
system.l2.ReadSharedReq_mshr_misses::.cpu.data        30626                       # number of ReadSharedReq MSHR misses
system.l2.ReadSharedReq_mshr_misses::total        30626                       # number of ReadSharedReq MSHR misses
system.l2.ReadSharedReq_mshr_miss_latency::.cpu.data   2267370000                       # number of ReadSharedReq MSHR miss cycles
system.l2.ReadSharedReq_mshr_miss_latency::total   2267370000                       # number of ReadSharedReq MSHR miss cycles
system.l2.ReadSharedReq_mshr_miss_rate::.cpu.data     0.099761                       # mshr miss rate for ReadSharedReq accesses
system.l2.ReadSharedReq_mshr_miss_rate::total     0.099761                       # mshr miss rate for ReadSharedReq accesses
system.l2.ReadSharedReq_avg_mshr_miss_latency::.cpu.data 74034.153987                       # average ReadSharedReq mshr miss latency
system.l2.ReadSharedReq_avg_mshr_miss_latency::total 74034.153987                       # average ReadSharedReq mshr miss latency
system.l2.power_state.pwrStateResidencyTicks::UNDEFINED  81034522000                       # Cumulative time (in ticks) in various power states
system.l2.tags.tagsinuse                 31586.000029                       # Cycle average of tags in use
system.l2.tags.total_refs                     1147938                       # Total number of references to valid blocks.
system.l2.tags.sampled_refs                    110302                       # Sample count of references to valid blocks.
system.l2.tags.avg_refs                     10.407227                       # Average number of references to valid blocks.
system.l2.tags.warmup_cycle                     82000                       # Cycle when the warmup percentage was hit.
system.l2.tags.occ_blocks::.writebacks      13.308882                       # Average occupied blocks per requestor
system.l2.tags.occ_blocks::.cpu.inst        69.082440                       # Average occupied blocks per requestor
system.l2.tags.occ_blocks::.cpu.data     31503.608707                       # Average occupied blocks per requestor
system.l2.tags.occ_percent::.writebacks      0.000406                       # Average percentage of cache occupancy
system.l2.tags.occ_percent::.cpu.inst        0.002108                       # Average percentage of cache occupancy
system.l2.tags.occ_percent::.cpu.data        0.961414                       # Average percentage of cache occupancy
system.l2.tags.occ_percent::total            0.963928                       # Average percentage of cache occupancy
system.l2.tags.occ_task_id_blocks::1024         32768                       # Occupied blocks per task id
system.l2.tags.age_task_id_blocks_1024::1            4                       # Occupied blocks per task id
system.l2.tags.age_task_id_blocks_1024::2            4                       # Occupied blocks per task id
system.l2.tags.age_task_id_blocks_1024::3         2461                       # Occupied blocks per task id
system.l2.tags.age_task_id_blocks_1024::4        30299                       # Occupied blocks per task id
system.l2.tags.occ_task_id_percent::1024            1                       # Percentage of cache occupancy per task id
system.l2.tags.tag_accesses                   4702066                       # Number of tag accesses
system.l2.tags.data_accesses                  4702066                       # Number of data accesses
system.l2.tags.power_state.pwrStateResidencyTicks::UNDEFINED  81034522000                       # Cumulative time (in ticks) in various power states
system.mem_ctrls.avgPriority_.writebacks::samples     94658.00                       # Average QoS priority value for accepted requests
system.mem_ctrls.avgPriority_.cpu.inst::samples       824.00                       # Average QoS priority value for accepted requests
system.mem_ctrls.avgPriority_.cpu.data::samples    219729.00                       # Average QoS priority value for accepted requests
system.mem_ctrls.priorityMinLatency      0.000000018750                       # per QoS priority minimum request to response latency (s)
system.mem_ctrls.priorityMaxLatency      0.006557278750                       # per QoS priority maximum request to response latency (s)
system.mem_ctrls.numReadWriteTurnArounds         5769                       # Number of turnarounds from READ to WRITE
system.mem_ctrls.numWriteReadTurnArounds         5769                       # Number of turnarounds from WRITE to READ
system.mem_ctrls.numStayReadState              388117                       # Number of times bus staying in READ state
system.mem_ctrls.numStayWriteState              89034                       # Number of times bus staying in WRITE state
system.mem_ctrls.readReqs                      110284                       # Number of read requests accepted
system.mem_ctrls.writeReqs                      47329                       # Number of write requests accepted
system.mem_ctrls.readBursts                    220568                       # Number of controller read bursts, including those serviced by the write queue
system.mem_ctrls.writeBursts                    94658                       # Number of controller write bursts, including those merged in the write queue
system.mem_ctrls.servicedByWrQ                     15                       # Number of controller read bursts serviced by the write queue
system.mem_ctrls.mergedWrBursts                     0                       # Number of controller write bursts merged with an existing one
system.mem_ctrls.neitherReadNorWriteReqs            0                       # Number of requests that are neither read nor write
system.mem_ctrls.avgRdQLen                       2.06                       # Average read queue length when enqueuing
system.mem_ctrls.avgWrQLen                      25.55                       # Average write queue length when enqueuing
system.mem_ctrls.numRdRetry                         0                       # Number of times read queue was full causing retry
system.mem_ctrls.numWrRetry                         0                       # Number of times write queue was full causing retry
system.mem_ctrls.readPktSize::0                     0                       # Read request sizes (log2)
system.mem_ctrls.readPktSize::1                     0                       # Read request sizes (log2)
system.mem_ctrls.readPktSize::2                     0                       # Read request sizes (log2)
system.mem_ctrls.readPktSize::3                     0                       # Read request sizes (log2)
system.mem_ctrls.readPktSize::4                     0                       # Read request sizes (log2)
system.mem_ctrls.readPktSize::5                     0                       # Read request sizes (log2)
system.mem_ctrls.readPktSize::6                220568                       # Read request sizes (log2)
system.mem_ctrls.readPktSize::7                     0                       # Read request sizes (log2)
system.mem_ctrls.writePktSize::0                    0                       # Write request sizes (log2)
system.mem_ctrls.writePktSize::1                    0                       # Write request sizes (log2)
system.mem_ctrls.writePktSize::2                    0                       # Write request sizes (log2)
system.mem_ctrls.writePktSize::3                    0                       # Write request sizes (log2)
system.mem_ctrls.writePktSize::4                    0                       # Write request sizes (log2)
system.mem_ctrls.writePktSize::5                    0                       # Write request sizes (log2)
system.mem_ctrls.writePktSize::6                94658                       # Write request sizes (log2)
system.mem_ctrls.writePktSize::7                    0                       # Write request sizes (log2)
system.mem_ctrls.rdQLenPdf::0                   93594                       # What read queue length does an incoming req see
system.mem_ctrls.rdQLenPdf::1                   93792                       # What read queue length does an incoming req see
system.mem_ctrls.rdQLenPdf::2                   16677                       # What read queue length does an incoming req see
system.mem_ctrls.rdQLenPdf::3                   16478                       # What read queue length does an incoming req see
system.mem_ctrls.rdQLenPdf::4                       5                       # What read queue length does an incoming req see
system.mem_ctrls.rdQLenPdf::5                       5                       # What read queue length does an incoming req see
system.mem_ctrls.rdQLenPdf::6                       1                       # What read queue length does an incoming req see
system.mem_ctrls.rdQLenPdf::7                       1                       # What read queue length does an incoming req see
system.mem_ctrls.rdQLenPdf::8                       0                       # What read queue length does an incoming req see
system.mem_ctrls.rdQLenPdf::9                       0                       # What read queue length does an incoming req see
system.mem_ctrls.rdQLenPdf::10                      0                       # What read queue length does an incoming req see
[...]
system.mem_ctrls.dram.bw_write::.writebacks     74759644                       # Write bandwidth from this memory (bytes/s)
system.mem_ctrls.dram.bw_write::total        74759644                       # Write bandwidth from this memory (bytes/s)
system.mem_ctrls.dram.bw_total::.writebacks     74759644                       # Total bandwidth to/from this memory (bytes/s)
system.mem_ctrls.dram.bw_total::.cpu.inst       650784                       # Total bandwidth to/from this memory (bytes/s)
system.mem_ctrls.dram.bw_total::.cpu.data    173550922                       # Total bandwidth to/from this memory (bytes/s)
system.mem_ctrls.dram.bw_total::total       248961350                       # Total bandwidth to/from this memory (bytes/s)
system.mem_ctrls.dram.readBursts               220553                       # Number of DRAM read bursts
system.mem_ctrls.dram.writeBursts               94643                       # Number of DRAM write bursts
system.mem_ctrls.dram.perBankRdBursts::0        13920                       # Per bank write bursts
system.mem_ctrls.dram.perBankRdBursts::1        14034                       # Per bank write bursts
system.mem_ctrls.dram.perBankRdBursts::2        13928                       # Per bank write bursts
system.mem_ctrls.dram.perBankRdBursts::3        13945                       # Per bank write bursts
system.mem_ctrls.dram.perBankRdBursts::4        13798                       # Per bank write bursts
system.mem_ctrls.dram.perBankRdBursts::5        13708                       # Per bank write bursts
system.mem_ctrls.dram.perBankRdBursts::6        13796                       # Per bank write bursts
system.mem_ctrls.dram.perBankRdBursts::7        13672                       # Per bank write bursts
system.mem_ctrls.dram.perBankRdBursts::8        13774                       # Per bank write bursts
system.mem_ctrls.dram.perBankRdBursts::9        13490                       # Per bank write bursts
system.mem_ctrls.dram.perBankRdBursts::10        13730                       # Per bank write bursts
system.mem_ctrls.dram.perBankRdBursts::11        13848                       # Per bank write bursts
system.mem_ctrls.dram.perBankRdBursts::12        13844                       # Per bank write bursts
system.mem_ctrls.dram.perBankRdBursts::13        13804                       # Per bank write bursts
system.mem_ctrls.dram.perBankRdBursts::14        13712                       # Per bank write bursts
system.mem_ctrls.dram.perBankRdBursts::15        13550                       # Per bank write bursts
system.mem_ctrls.dram.perBankWrBursts::0         5858                       # Per bank write bursts
system.mem_ctrls.dram.perBankWrBursts::1         6075                       # Per bank write bursts
system.mem_ctrls.dram.perBankWrBursts::2         6078                       # Per bank write bursts
system.mem_ctrls.dram.perBankWrBursts::3         6048                       # Per bank write bursts
system.mem_ctrls.dram.perBankWrBursts::4         6028                       # Per bank write bursts
system.mem_ctrls.dram.perBankWrBursts::5         5960                       # Per bank write bursts
system.mem_ctrls.dram.perBankWrBursts::6         6012                       # Per bank write bursts
system.mem_ctrls.dram.perBankWrBursts::7         5908                       # Per bank write bursts
system.mem_ctrls.dram.perBankWrBursts::8         5948                       # Per bank write bursts
system.mem_ctrls.dram.perBankWrBursts::9         5776                       # Per bank write bursts
system.mem_ctrls.dram.perBankWrBursts::10         5810                       # Per bank write bursts
system.mem_ctrls.dram.perBankWrBursts::11         5816                       # Per bank write bursts
system.mem_ctrls.dram.perBankWrBursts::12         5824                       # Per bank write bursts
system.mem_ctrls.dram.perBankWrBursts::13         5856                       # Per bank write bursts
system.mem_ctrls.dram.perBankWrBursts::14         5836                       # Per bank write bursts
system.mem_ctrls.dram.perBankWrBursts::15         5810                       # Per bank write bursts
system.mem_ctrls.dram.totQLat              3695744750                       # Total ticks spent queuing
system.mem_ctrls.dram.totBusLat            1102765000                       # Total ticks spent in databus transfers
system.mem_ctrls.dram.totMemAccLat         7831113500                       # Total ticks spent from burst creation until serviced by the DRAM
system.mem_ctrls.dram.avgQLat                16756.72                       # Average queueing delay per DRAM burst
system.mem_ctrls.dram.avgBusLat               5000.00                       # Average bus latency per DRAM burst
system.mem_ctrls.dram.avgMemAccLat           35506.72                       # Average memory access latency per DRAM burst
system.mem_ctrls.dram.readRowHits              187569                       # Number of row buffer hits during reads
system.mem_ctrls.dram.writeRowHits              83715                       # Number of row buffer hits during writes
system.mem_ctrls.dram.readRowHitRate            85.04                       # Row buffer hit rate for reads
system.mem_ctrls.dram.writeRowHitRate           88.45                       # Row buffer hit rate for writes
system.mem_ctrls.dram.bytesPerActivate::samples        43912                       # Bytes accessed per row activation
system.mem_ctrls.dram.bytesPerActivate::mean   459.385680                       # Bytes accessed per row activation
system.mem_ctrls.dram.bytesPerActivate::gmean   293.127404                       # Bytes accessed per row activation
system.mem_ctrls.dram.bytesPerActivate::stdev   402.577035                       # Bytes accessed per row activation
system.mem_ctrls.dram.bytesPerActivate::0-127          808      1.84%      1.84% # Bytes accessed per row activation
system.mem_ctrls.dram.bytesPerActivate::128-255        22652     51.58%     53.43% # Bytes accessed per row activation
system.mem_ctrls.dram.bytesPerActivate::256-383         2008      4.57%     58.00% # Bytes accessed per row activation
system.mem_ctrls.dram.bytesPerActivate::384-511         1228      2.80%     60.79% # Bytes accessed per row activation
system.mem_ctrls.dram.bytesPerActivate::512-639          984      2.24%     63.04% # Bytes accessed per row activation
system.mem_ctrls.dram.bytesPerActivate::640-767         1791      4.08%     67.11% # Bytes accessed per row activation
system.mem_ctrls.dram.bytesPerActivate::768-895          720      1.64%     68.75% # Bytes accessed per row activation
system.mem_ctrls.dram.bytesPerActivate::896-1023          759      1.73%     70.48% # Bytes accessed per row activation
system.mem_ctrls.dram.bytesPerActivate::1024-1151        12962     29.52%    100.00% # Bytes accessed per row activation
system.mem_ctrls.dram.bytesPerActivate::total        43912                       # Bytes accessed per row activation
system.mem_ctrls.dram.bytesRead              14115392                       # Total number of bytes read from DRAM
system.mem_ctrls.dram.bytesWritten            6057152                       # Total number of bytes written to DRAM
system.mem_ctrls.dram.avgRdBW              174.189859                       # Average DRAM read bandwidth in MiBytes/s
system.mem_ctrls.dram.avgWrBW               74.747797                       # Average DRAM write bandwidth in MiBytes/s
system.mem_ctrls.dram.peakBW                 12800.00                       # Theoretical peak bandwidth in MiByte/s
system.mem_ctrls.dram.busUtil                    1.94                       # Data bus utilization in percentage
system.mem_ctrls.dram.busUtilRead                1.36                       # Data bus utilization in percentage for reads
system.mem_ctrls.dram.busUtilWrite               0.58                       # Data bus utilization in percentage for writes
system.mem_ctrls.dram.pageHitRate               86.07                       # Row buffer hit rate, read and write combined
system.mem_ctrls.dram.power_state.pwrStateResidencyTicks::UNDEFINED  81034522000                       # Cumulative time (in ticks) in various power states
system.mem_ctrls.dram.rank0.actEnergy       159243420                       # Energy for activate commands per rank (pJ)
system.mem_ctrls.dram.rank0.preEnergy        84639885                       # Energy for precharge commands per rank (pJ)
system.mem_ctrls.dram.rank0.readEnergy      791119140                       # Energy for read commands per rank (pJ)
system.mem_ctrls.dram.rank0.writeEnergy     250387740                       # Energy for write commands per rank (pJ)
system.mem_ctrls.dram.rank0.refreshEnergy 6396558480.000001                       # Energy for refresh commands per rank (pJ)
system.mem_ctrls.dram.rank0.actBackEnergy  15199924950                       # Energy for active background per rank (pJ)
system.mem_ctrls.dram.rank0.preBackEnergy  18317319840                       # Energy for precharge background per rank (pJ)
system.mem_ctrls.dram.rank0.actPowerDownEnergy            0                       # Energy for active power-down per rank (pJ)
system.mem_ctrls.dram.rank0.prePowerDownEnergy            0                       # Energy for precharge power-down per rank (pJ)
system.mem_ctrls.dram.rank0.selfRefreshEnergy            0                       # Energy for self refresh per rank (pJ)
system.mem_ctrls.dram.rank0.totalEnergy   41199193455                       # Total energy per rank (pJ)
system.mem_ctrls.dram.rank0.averagePower   508.415333                       # Core power per rank (mW)
system.mem_ctrls.dram.rank0.totalIdleTime            0                       # Total Idle time Per DRAM Rank
system.mem_ctrls.dram.rank0.pwrStateTime::IDLE  47441165000                       # Time in different power states
system.mem_ctrls.dram.rank0.pwrStateTime::REF   2705820000                       # Time in different power states
system.mem_ctrls.dram.rank0.pwrStateTime::SREF            0                       # Time in different power states
system.mem_ctrls.dram.rank0.pwrStateTime::PRE_PDN            0                       # Time in different power states
system.mem_ctrls.dram.rank0.pwrStateTime::ACT  30887537000                       # Time in different power states
system.mem_ctrls.dram.rank0.pwrStateTime::ACT_PDN            0                       # Time in different power states
system.mem_ctrls.dram.rank1.actEnergy       154288260                       # Energy for activate commands per rank (pJ)
system.mem_ctrls.dram.rank1.preEnergy        82006155                       # Energy for precharge commands per rank (pJ)
system.mem_ctrls.dram.rank1.readEnergy      783629280                       # Energy for read commands per rank (pJ)
system.mem_ctrls.dram.rank1.writeEnergy     243648720                       # Energy for write commands per rank (pJ)
system.mem_ctrls.dram.rank1.refreshEnergy 6396558480.000001                       # Energy for refresh commands per rank (pJ)
system.mem_ctrls.dram.rank1.actBackEnergy  14857166850                       # Energy for active background per rank (pJ)
system.mem_ctrls.dram.rank1.preBackEnergy  18605958240                       # Energy for precharge background per rank (pJ)
system.mem_ctrls.dram.rank1.actPowerDownEnergy            0                       # Energy for active power-down per rank (pJ)
system.mem_ctrls.dram.rank1.prePowerDownEnergy            0                       # Energy for precharge power-down per rank (pJ)
system.mem_ctrls.dram.rank1.selfRefreshEnergy            0                       # Energy for self refresh per rank (pJ)
system.mem_ctrls.dram.rank1.totalEnergy   41123255985                       # Total energy per rank (pJ)
system.mem_ctrls.dram.rank1.averagePower   507.478232                       # Core power per rank (mW)
system.mem_ctrls.dram.rank1.totalIdleTime            0                       # Total Idle time Per DRAM Rank
system.mem_ctrls.dram.rank1.pwrStateTime::IDLE  48197435750                       # Time in different power states
system.mem_ctrls.dram.rank1.pwrStateTime::REF   2705820000                       # Time in different power states
system.mem_ctrls.dram.rank1.pwrStateTime::SREF            0                       # Time in different power states
system.mem_ctrls.dram.rank1.pwrStateTime::PRE_PDN            0                       # Time in different power states
system.mem_ctrls.dram.rank1.pwrStateTime::ACT  30131266250                       # Time in different power states
system.mem_ctrls.dram.rank1.pwrStateTime::ACT_PDN            0                       # Time in different power states
system.mem_ctrls.power_state.pwrStateResidencyTicks::UNDEFINED  81034522000                       # Cumulative time (in ticks) in various power states
system.membus.trans_dist::ReadResp              31038                       # Transaction distribution
system.membus.trans_dist::WritebackDirty        47329                       # Transaction distribution
system.membus.trans_dist::CleanEvict            29847                       # Transaction distribution
system.membus.trans_dist::ReadExReq             79246                       # Transaction distribution
system.membus.trans_dist::ReadExResp            79246                       # Transaction distribution
system.membus.trans_dist::ReadSharedReq         31038                       # Transaction distribution
system.membus.pkt_count_system.l2.mem_side_port::system.mem_ctrls.port       297744                       # Packet count per connected requestor and responder (bytes)
system.membus.pkt_count::total                 297744                       # Packet count per connected requestor and responder (bytes)
system.membus.pkt_size_system.l2.mem_side_port::system.mem_ctrls.port     20174464                       # Cumulative packet size per connected requestor and responder (bytes)
system.membus.pkt_size::total                20174464                       # Cumulative packet size per connected requestor and responder (bytes)
system.membus.snoops                                0                       # Total snoops (count)
system.membus.snoopTraffic                          0                       # Total snoop traffic (bytes)
system.membus.snoop_fanout::samples            110284                       # Request fanout histogram
system.membus.snoop_fanout::mean                    0                       # Request fanout histogram
system.membus.snoop_fanout::stdev                   0                       # Request fanout histogram
system.membus.snoop_fanout::underflows              0      0.00%      0.00% # Request fanout histogram
system.membus.snoop_fanout::0                  110284    100.00%    100.00% # Request fanout histogram
system.membus.snoop_fanout::1                       0      0.00%    100.00% # Request fanout histogram
system.membus.snoop_fanout::overflows               0      0.00%    100.00% # Request fanout histogram
system.membus.snoop_fanout::min_value               0                       # Request fanout histogram
system.membus.snoop_fanout::max_value               0                       # Request fanout histogram
system.membus.snoop_fanout::total              110284                       # Request fanout histogram
system.membus.power_state.pwrStateResidencyTicks::UNDEFINED  81034522000                       # Cumulative time (in ticks) in various power states
system.membus.reqLayer0.occupancy           593711000                       # Layer occupancy (ticks)
system.membus.reqLayer0.utilization               0.7                       # Layer utilization (%)
system.membus.respLayer1.occupancy         1029909750                       # Layer occupancy (ticks)
system.membus.respLayer1.utilization              1.3                       # Layer utilization (%)
system.tol2bus.trans_dist::ReadResp            307432                       # Transaction distribution
system.tol2bus.trans_dist::WritebackDirty       586262                       # Transaction distribution
system.tol2bus.trans_dist::WritebackClean           38                       # Transaction distribution
system.tol2bus.trans_dist::CleanEvict           64838                       # Transaction distribution
system.tol2bus.trans_dist::ReadExReq           267595                       # Transaction distribution
system.tol2bus.trans_dist::ReadExResp          267595                       # Transaction distribution
system.tol2bus.trans_dist::ReadCleanReq           437                       # Transaction distribution
system.tol2bus.trans_dist::ReadSharedReq       306995                       # Transaction distribution
system.tol2bus.pkt_count_system.cpu.icache.mem_side_port::system.l2.cpu_side_port          912                       # Packet count per connected requestor and responder (bytes)
system.tol2bus.pkt_count_system.cpu.dcache.mem_side_port::system.l2.cpu_side_port      1722746                       # Packet count per connected requestor and responder (bytes)
system.tol2bus.pkt_count::total               1723658                       # Packet count per connected requestor and responder (bytes)
system.tol2bus.pkt_size_system.cpu.icache.mem_side_port::system.l2.cpu_side_port        60800                       # Cumulative packet size per connected requestor and responder (bytes)
system.tol2bus.pkt_size_system.cpu.dcache.mem_side_port::system.l2.cpu_side_port    142530944                       # Cumulative packet size per connected requestor and responder (bytes)
system.tol2bus.pkt_size::total              142591744                       # Cumulative packet size per connected requestor and responder (bytes)
system.tol2bus.snoops                           77534                       # Total snoops (count)
system.tol2bus.snoopTraffic                   6058112                       # Total snoop traffic (bytes)
system.tol2bus.snoop_fanout::samples           652561                       # Request fanout histogram
system.tol2bus.snoop_fanout::mean            0.001608                       # Request fanout histogram
system.tol2bus.snoop_fanout::stdev           0.040062                       # Request fanout histogram
system.tol2bus.snoop_fanout::underflows             0      0.00%      0.00% # Request fanout histogram
system.tol2bus.snoop_fanout::0                 651512     99.84%     99.84% # Request fanout histogram
system.tol2bus.snoop_fanout::1                   1049      0.16%    100.00% # Request fanout histogram
system.tol2bus.snoop_fanout::2                      0      0.00%    100.00% # Request fanout histogram
system.tol2bus.snoop_fanout::overflows              0      0.00%    100.00% # Request fanout histogram
system.tol2bus.snoop_fanout::min_value              0                       # Request fanout histogram
system.tol2bus.snoop_fanout::max_value              1                       # Request fanout histogram
system.tol2bus.snoop_fanout::total             652561                       # Request fanout histogram
system.tol2bus.power_state.pwrStateResidencyTicks::UNDEFINED  81034522000                       # Cumulative time (in ticks) in various power states
system.tol2bus.reqLayer0.occupancy         1652257500                       # Layer occupancy (ticks)
system.tol2bus.reqLayer0.utilization              2.0                       # Layer utilization (%)
system.tol2bus.respLayer0.occupancy           1092500                       # Layer occupancy (ticks)
system.tol2bus.respLayer0.utilization             0.0                       # Layer utilization (%)
system.tol2bus.respLayer1.occupancy        1436476497                       # Layer occupancy (ticks)
system.tol2bus.respLayer1.utilization             1.8                       # Layer utilization (%)
system.voltage_domain.voltage                       1                       # Voltage in Volts

---------- End Simulation Statistics   ----------
