
---------- Begin Simulation Statistics ----------
final_tick                               129372015500                       # Number of ticks from beginning of simulation (restored from checkpoints and never reset)
host_inst_rate                                 304925                       # Simulator instruction rate (inst/s)
host_mem_usage                                 672932                       # Number of bytes of host memory used
host_op_rate                                   304936                       # Simulator op (including micro ops) rate (op/s)
host_seconds                                   327.95                       # Real time elapsed on the host
host_tick_rate                              394487109                       # Simulator tick rate (ticks/s)
sim_freq                                 1000000000000                       # Frequency of simulated ticks
sim_insts                                   100000000                       # Number of instructions simulated
sim_ops                                     100003638                       # Number of ops (including micro ops) simulated
sim_seconds                                  0.129372                       # Number of seconds simulated
sim_ticks                                129372015500                       # Number of ticks simulated
system.cpu.committedInsts                   100000000                       # Number of instructions committed
system.cpu.committedOps                     100003638                       # Number of ops (including micro ops) committed
system.cpu.cpi                               2.587440                       # CPI: cycles per instruction
system.cpu.discardedOps                         21337                       # Number of ops (including micro ops) which were discarded before commit
system.cpu.idleCycles                       143634687                       # Total number of cycles that the object has spent stopped
system.cpu.ipc                               0.386482                       # IPC: instructions per cycle
system.cpu.numCycles                        258744031                       # number of cpu cycles simulated
system.cpu.numFetchSuspends                         0                       # Number of times Execute suspended instruction fetching
system.cpu.numWorkItemsCompleted                    0                       # number of work items this cpu completed
system.cpu.numWorkItemsStarted                      0                       # number of work items this cpu started
system.cpu.op_class_0::No_OpClass                   0      0.00%      0.00% # Class of committed instruction
system.cpu.op_class_0::IntAlu                49995336     49.99%     49.99% # Class of committed instruction
system.cpu.op_class_0::IntMult                     85      0.00%     49.99% # Class of committed instruction
system.cpu.op_class_0::IntDiv                       0      0.00%     49.99% # Class of committed instruction
system.cpu.op_class_0::FloatAdd                     0      0.00%     49.99% # Class of committed instruction
system.cpu.op_class_0::FloatCmp                     0      0.00%     49.99% # Class of committed instruction
system.cpu.op_class_0::FloatCvt                     0      0.00%     49.99% # Class of committed instruction
system.cpu.op_class_0::FloatMult                    0      0.00%     49.99% # Class of committed instruction
system.cpu.op_class_0::FloatMultAcc                 0      0.00%     49.99% # Class of committed instruction
system.cpu.op_class_0::FloatDiv                     0      0.00%     49.99% # Class of committed instruction
system.cpu.op_class_0::FloatMisc                    0      0.00%     49.99% # Class of committed instruction
system.cpu.op_class_0::FloatSqrt                    0      0.00%     49.99% # Class of committed instruction
system.cpu.op_class_0::SimdAdd                      0      0.00%     49.99% # Class of committed instruction
system.cpu.op_class_0::SimdAddAcc                   0      0.00%     49.99% # Class of committed instruction
system.cpu.op_class_0::SimdAlu                      0      0.00%     49.99% # Class of committed instruction
system.cpu.op_class_0::SimdCmp                      0      0.00%     49.99% # Class of committed instruction
system.cpu.op_class_0::SimdCvt                      0      0.00%     49.99% # Class of committed instruction
system.cpu.op_class_0::SimdMisc                     0      0.00%     49.99% # Class of committed instruction
system.cpu.op_class_0::SimdMult                     0      0.00%     49.99% # Class of committed instruction
system.cpu.op_class_0::SimdMultAcc                  0      0.00%     49.99% # Class of committed instruction
system.cpu.op_class_0::SimdShift                    0      0.00%     49.99% # Class of committed instruction
system.cpu.op_class_0::SimdShiftAcc                 0      0.00%     49.99% # Class of committed instruction
system.cpu.op_class_0::SimdDiv                      0      0.00%     49.99% # Class of committed instruction
system.cpu.op_class_0::SimdSqrt                     0      0.00%     49.99% # Class of committed instruction
system.cpu.op_class_0::SimdFloatAdd                 0      0.00%     49.99% # Class of committed instruction
system.cpu.op_class_0::SimdFloatAlu                 0      0.00%     49.99% # Class of committed instruction
system.cpu.op_class_0::SimdFloatCmp                 2      0.00%     49.99% # Class of committed instruction
system.cpu.op_class_0::SimdFloatCvt                 0      0.00%     49.99% # Class of committed instruction
system.cpu.op_class_0::SimdFloatDiv                 0      0.00%     49.99% # Class of committed instruction
system.cpu.op_class_0::SimdFloatMisc               22      0.00%     49.99% # Class of committed instruction
system.cpu.op_class_0::SimdFloatMult                0      0.00%     49.99% # Class of committed instruction
system.cpu.op_class_0::SimdFloatMultAcc             0      0.00%     49.99% # Class of committed instruction
system.cpu.op_class_0::SimdFloatSqrt                0      0.00%     49.99% # Class of committed instruction
system.cpu.op_class_0::SimdReduceAdd                0      0.00%     49.99% # Class of committed instruction
system.cpu.op_class_0::SimdReduceAlu                0      0.00%     49.99% # Class of committed instruction
system.cpu.op_class_0::SimdReduceCmp                0      0.00%     49.99% # Class of committed instruction
system.cpu.op_class_0::SimdFloatReduceAdd            0      0.00%     49.99% # Class of committed instruction
system.cpu.op_class_0::SimdFloatReduceCmp            0      0.00%     49.99% # Class of committed instruction
system.cpu.op_class_0::SimdAes                      0      0.00%     49.99% # Class of committed instruction
system.cpu.op_class_0::SimdAesMix                   0      0.00%     49.99% # Class of committed instruction
system.cpu.op_class_0::SimdSha1Hash                 0      0.00%     49.99% # Class of committed instruction
system.cpu.op_class_0::SimdSha1Hash2                0      0.00%     49.99% # Class of committed instruction
system.cpu.op_class_0::SimdSha256Hash               0      0.00%     49.99% # Class of committed instruction
system.cpu.op_class_0::SimdSha256Hash2              0      0.00%     49.99% # Class of committed instruction
system.cpu.op_class_0::SimdShaSigma2                0      0.00%     49.99% # Class of committed instruction
system.cpu.op_class_0::SimdShaSigma3                0      0.00%     49.99% # Class of committed instruction
system.cpu.op_class_0::SimdPredAlu                  0      0.00%     49.99% # Class of committed instruction
system.cpu.op_class_0::MemRead               36892300     36.89%     86.88% # Class of committed instruction
system.cpu.op_class_0::MemWrite              13115893     13.12%    100.00% # Class of committed instruction
system.cpu.op_class_0::FloatMemRead                 0      0.00%    100.00% # Class of committed instruction
system.cpu.op_class_0::FloatMemWrite                0      0.00%    100.00% # Class of committed instruction
system.cpu.op_class_0::IprAccess                    0      0.00%    100.00% # Class of committed instruction
system.cpu.op_class_0::InstPrefetch                 0      0.00%    100.00% # Class of committed instruction
system.cpu.op_class_0::total                100003638                       # Class of committed instruction
system.cpu.tickCycles                       115109344                       # Number of cycles that the object actually ticked
system.cpu.workload.numSyscalls                    18                       # Number of system calls
system.membus.snoop_filter.hit_multi_requests            0                       # Number of requests hitting in the snoop filter with multiple (>1) holders of the requested data.
system.membus.snoop_filter.hit_multi_snoops            0                       # Number of snoops hitting in the snoop filter with multiple (>1) holders of the requested data.
system.membus.snoop_filter.hit_single_requests       711363                       # Number of requests hitting in the snoop filter with a single holder of the requested data.
system.membus.snoop_filter.hit_single_snoops            0                       # Number of snoops hitting in the snoop filter with a single holder of the requested data.
system.membus.snoop_filter.tot_requests       1455535                       # Total number of requests made to the snoop filter.
system.membus.snoop_filter.tot_snoops               0                       # Total number of snoops made to the snoop filter.
system.tol2bus.snoop_filter.hit_multi_requests         5855                       # Number of requests hitting in the snoop filter with multiple (>1) holders of the requested data.
system.tol2bus.snoop_filter.hit_multi_snoops          198                       # Number of snoops hitting in the snoop filter with multiple (>1) holders of the requested data.
system.tol2bus.snoop_filter.hit_single_requests       764832                       # Number of requests hitting in the snoop filter with a single holder of the requested data.
system.tol2bus.snoop_filter.hit_single_snoops          789                       # Number of snoops hitting in the snoop filter with a single holder of the requested data.
system.tol2bus.snoop_filter.tot_requests      1530926                       # Total number of requests made to the snoop filter.
system.tol2bus.snoop_filter.tot_snoops            987                       # Total number of snoops made to the snoop filter.
system.clk_domain.clock                          1000                       # Clock period in ticks
system.cpu.branchPred.lookups                  606713                       # Number of BP lookups
system.cpu.branchPred.condPredicted            604516                       # Number of conditional branches predicted
system.cpu.branchPred.condIncorrect               844                       # Number of conditional branches incorrect
system.cpu.branchPred.BTBLookups               602549                       # Number of BTB lookups
system.cpu.branchPred.BTBHits                  601368                       # Number of BTB hits
system.cpu.branchPred.BTBHitPct             99.803999                       # BTB Hit Percentage
system.cpu.branchPred.RASUsed                     595                       # Number of times the RAS was used to get a target.
system.cpu.branchPred.RASIncorrect                  1                       # Number of incorrect RAS predictions.
system.cpu.branchPred.indirectLookups             380                       # Number of indirect predictor lookups.
system.cpu.branchPred.indirectHits                173                       # Number of indirect target hits.
system.cpu.branchPred.indirectMisses              207                       # Number of indirect misses.
system.cpu.branchPred.indirectMispredicted          103                       # Number of mispredicted indirect branches.
system.cpu.dcache.demand_hits::.cpu.data     47276143                       # number of demand (read+write) hits
system.cpu.dcache.demand_hits::total         47276143                       # number of demand (read+write) hits
system.cpu.dcache.overall_hits::.cpu.data     47276182                       # number of overall hits
system.cpu.dcache.overall_hits::total        47276182                       # number of overall hits
system.cpu.dcache.demand_misses::.cpu.data      1519096                       # number of demand (read+write) misses
system.cpu.dcache.demand_misses::total        1519096                       # number of demand (read+write) misses
system.cpu.dcache.overall_misses::.cpu.data      1519109                       # number of overall misses
system.cpu.dcache.overall_misses::total       1519109                       # number of overall misses
system.cpu.dcache.demand_miss_latency::.cpu.data 140725680000                       # number of demand (read+write) miss cycles
system.cpu.dcache.demand_miss_latency::total 140725680000                       # number of demand (read+write) miss cycles
system.cpu.dcache.overall_miss_latency::.cpu.data 140725680000                       # number of overall miss cycles
system.cpu.dcache.overall_miss_latency::total 140725680000                       # number of overall miss cycles
system.cpu.dcache.demand_accesses::.cpu.data     48795239                       # number of demand (read+write) accesses
system.cpu.dcache.demand_accesses::total     48795239                       # number of demand (read+write) accesses
system.cpu.dcache.overall_accesses::.cpu.data     48795291                       # number of overall (read+write) accesses
system.cpu.dcache.overall_accesses::total     48795291                       # number of overall (read+write) accesses
system.cpu.dcache.demand_miss_rate::.cpu.data     0.031132                       # miss rate for demand accesses
system.cpu.dcache.demand_miss_rate::total     0.031132                       # miss rate for demand accesses
system.cpu.dcache.overall_miss_rate::.cpu.data     0.031132                       # miss rate for overall accesses
system.cpu.dcache.overall_miss_rate::total     0.031132                       # miss rate for overall accesses
system.cpu.dcache.demand_avg_miss_latency::.cpu.data 92637.779311                       # average overall miss latency
system.cpu.dcache.demand_avg_miss_latency::total 92637.779311                       # average overall miss latency
system.cpu.dcache.overall_avg_miss_latency::.cpu.data 92636.986549                       # average overall miss latency
system.cpu.dcache.overall_avg_miss_latency::total 92636.986549                       # average overall miss latency
system.cpu.dcache.blocked_cycles::no_mshrs            0                       # number of cycles access was blocked
system.cpu.dcache.blocked_cycles::no_targets            0                       # number of cycles access was blocked
system.cpu.dcache.blocked::no_mshrs                 0                       # number of cycles access was blocked
system.cpu.dcache.blocked::no_targets               0                       # number of cycles access was blocked
system.cpu.dcache.avg_blocked_cycles::no_mshrs          nan                       # average number of cycles each access was blocked
system.cpu.dcache.avg_blocked_cycles::no_targets          nan                       # average number of cycles each access was blocked
system.cpu.dcache.writebacks::.writebacks       758728                       # number of writebacks
system.cpu.dcache.writebacks::total            758728                       # number of writebacks
system.cpu.dcache.demand_mshr_hits::.cpu.data       753460                       # number of demand (read+write) MSHR hits
system.cpu.dcache.demand_mshr_hits::total       753460                       # number of demand (read+write) MSHR hits
system.cpu.dcache.overall_mshr_hits::.cpu.data       753460                       # number of overall MSHR hits
system.cpu.dcache.overall_mshr_hits::total       753460                       # number of overall MSHR hits
system.cpu.dcache.demand_mshr_misses::.cpu.data       765636                       # number of demand (read+write) MSHR misses
system.cpu.dcache.demand_mshr_misses::total       765636                       # number of demand (read+write) MSHR misses
system.cpu.dcache.overall_mshr_misses::.cpu.data       765644                       # number of overall MSHR misses
system.cpu.dcache.overall_mshr_misses::total       765644                       # number of overall MSHR misses
system.cpu.dcache.demand_mshr_miss_latency::.cpu.data  71376539000                       # number of demand (read+write) MSHR miss cycles
system.cpu.dcache.demand_mshr_miss_latency::total  71376539000                       # number of demand (read+write) MSHR miss cycles
system.cpu.dcache.overall_mshr_miss_latency::.cpu.data  71377479000                       # number of overall MSHR miss cycles
system.cpu.dcache.overall_mshr_miss_latency::total  71377479000                       # number of overall MSHR miss cycles
system.cpu.dcache.demand_mshr_miss_rate::.cpu.data     0.015691                       # mshr miss rate for demand accesses
system.cpu.dcache.demand_mshr_miss_rate::total     0.015691                       # mshr miss rate for demand accesses
system.cpu.dcache.overall_mshr_miss_rate::.cpu.data     0.015691                       # mshr miss rate for overall accesses
system.cpu.dcache.overall_mshr_miss_rate::total     0.015691                       # mshr miss rate for overall accesses
system.cpu.dcache.demand_avg_mshr_miss_latency::.cpu.data 93225.160520                       # average overall mshr miss latency
system.cpu.dcache.demand_avg_mshr_miss_latency::total 93225.160520                       # average overall mshr miss latency
system.cpu.dcache.overall_avg_mshr_miss_latency::.cpu.data 93225.414161                       # average overall mshr miss latency
system.cpu.dcache.overall_avg_mshr_miss_latency::total 93225.414161                       # average overall mshr miss latency
system.cpu.dcache.replacements                 764621                       # number of replacements
system.cpu.dcache.ReadReq_hits::.cpu.data     35690983                       # number of ReadReq hits
system.cpu.dcache.ReadReq_hits::total        35690983                       # number of ReadReq hits
system.cpu.dcache.ReadReq_misses::.cpu.data        11718                       # number of ReadReq misses
system.cpu.dcache.ReadReq_misses::total         11718                       # number of ReadReq misses
system.cpu.dcache.ReadReq_miss_latency::.cpu.data    286926500                       # number of ReadReq miss cycles
system.cpu.dcache.ReadReq_miss_latency::total    286926500                       # number of ReadReq miss cycles
system.cpu.dcache.ReadReq_accesses::.cpu.data     35702701                       # number of ReadReq accesses(hits+misses)
system.cpu.dcache.ReadReq_accesses::total     35702701                       # number of ReadReq accesses(hits+misses)
system.cpu.dcache.ReadReq_miss_rate::.cpu.data     0.000328                       # miss rate for ReadReq accesses
system.cpu.dcache.ReadReq_miss_rate::total     0.000328                       # miss rate for ReadReq accesses
system.cpu.dcache.ReadReq_avg_miss_latency::.cpu.data 24485.961768                       # average ReadReq miss latency
system.cpu.dcache.ReadReq_avg_miss_latency::total 24485.961768                       # average ReadReq miss latency
system.cpu.dcache.ReadReq_mshr_hits::.cpu.data            6                       # number of ReadReq MSHR hits
system.cpu.dcache.ReadReq_mshr_hits::total            6                       # number of ReadReq MSHR hits
system.cpu.dcache.ReadReq_mshr_misses::.cpu.data        11712                       # number of ReadReq MSHR misses
system.cpu.dcache.ReadReq_mshr_misses::total        11712                       # number of ReadReq MSHR misses
system.cpu.dcache.ReadReq_mshr_miss_latency::.cpu.data    274843500                       # number of ReadReq MSHR miss cycles
system.cpu.dcache.ReadReq_mshr_miss_latency::total    274843500                       # number of ReadReq MSHR miss cycles
system.cpu.dcache.ReadReq_mshr_miss_rate::.cpu.data     0.000328                       # mshr miss rate for ReadReq accesses
system.cpu.dcache.ReadReq_mshr_miss_rate::total     0.000328                       # mshr miss rate for ReadReq accesses
system.cpu.dcache.ReadReq_avg_mshr_miss_latency::.cpu.data 23466.828893                       # average ReadReq mshr miss latency
system.cpu.dcache.ReadReq_avg_mshr_miss_latency::total 23466.828893                       # average ReadReq mshr miss latency
system.cpu.dcache.WriteReq_hits::.cpu.data     11585160                       # number of WriteReq hits
system.cpu.dcache.WriteReq_hits::total       11585160                       # number of WriteReq hits
system.cpu.dcache.WriteReq_misses::.cpu.data      1507378                       # number of WriteReq misses
system.cpu.dcache.WriteReq_misses::total      1507378                       # number of WriteReq misses
system.cpu.dcache.WriteReq_miss_latency::.cpu.data 140438753500                       # number of WriteReq miss cycles
system.cpu.dcache.WriteReq_miss_latency::total 140438753500                       # number of WriteReq miss cycles
system.cpu.dcache.WriteReq_accesses::.cpu.data     13092538                       # number of WriteReq accesses(hits+misses)
system.cpu.dcache.WriteReq_accesses::total     13092538                       # number of WriteReq accesses(hits+misses)
system.cpu.dcache.WriteReq_miss_rate::.cpu.data     0.115133                       # miss rate for WriteReq accesses
system.cpu.dcache.WriteReq_miss_rate::total     0.115133                       # miss rate for WriteReq accesses
system.cpu.dcache.WriteReq_avg_miss_latency::.cpu.data 93167.575419                       # average WriteReq miss latency
system.cpu.dcache.WriteReq_avg_miss_latency::total 93167.575419                       # average WriteReq miss latency
system.cpu.dcache.WriteReq_mshr_hits::.cpu.data       753454                       # number of WriteReq MSHR hits
system.cpu.dcache.WriteReq_mshr_hits::total       753454                       # number of WriteReq MSHR hits
system.cpu.dcache.WriteReq_mshr_misses::.cpu.data       753924                       # number of WriteReq MSHR misses
system.cpu.dcache.WriteReq_mshr_misses::total       753924                       # number of WriteReq MSHR misses
system.cpu.dcache.WriteReq_mshr_miss_latency::.cpu.data  71101695500                       # number of WriteReq MSHR miss cycles
system.cpu.dcache.WriteReq_mshr_miss_latency::total  71101695500                       # number of WriteReq MSHR miss cycles
system.cpu.dcache.WriteReq_mshr_miss_rate::.cpu.data     0.057584                       # mshr miss rate for WriteReq accesses
system.cpu.dcache.WriteReq_mshr_miss_rate::total     0.057584                       # mshr miss rate for WriteReq accesses
system.cpu.dcache.WriteReq_avg_mshr_miss_latency::.cpu.data 94308.836832                       # average WriteReq mshr miss latency
system.cpu.dcache.WriteReq_avg_mshr_miss_latency::total 94308.836832                       # average WriteReq mshr miss latency
system.cpu.dcache.SoftPFReq_hits::.cpu.data           39                       # number of SoftPFReq hits
system.cpu.dcache.SoftPFReq_hits::total            39                       # number of SoftPFReq hits
system.cpu.dcache.SoftPFReq_misses::.cpu.data           13                       # number of SoftPFReq misses
system.cpu.dcache.SoftPFReq_misses::total           13                       # number of SoftPFReq misses
system.cpu.dcache.SoftPFReq_accesses::.cpu.data           52                       # number of SoftPFReq accesses(hits+misses)
system.cpu.dcache.SoftPFReq_accesses::total           52                       # number of SoftPFReq accesses(hits+misses)
system.cpu.dcache.SoftPFReq_miss_rate::.cpu.data     0.250000                       # miss rate for SoftPFReq accesses
system.cpu.dcache.SoftPFReq_miss_rate::total     0.250000                       # miss rate for SoftPFReq accesses
system.cpu.dcache.SoftPFReq_mshr_misses::.cpu.data            8                       # number of SoftPFReq MSHR misses
system.cpu.dcache.SoftPFReq_mshr_misses::total            8                       # number of SoftPFReq MSHR misses
system.cpu.dcache.SoftPFReq_mshr_miss_latency::.cpu.data       940000                       # number of SoftPFReq MSHR miss cycles
system.cpu.dcache.SoftPFReq_mshr_miss_latency::total       940000                       # number of SoftPFReq MSHR miss cycles
system.cpu.dcache.SoftPFReq_mshr_miss_rate::.cpu.data     0.153846                       # mshr miss rate for SoftPFReq accesses
system.cpu.dcache.SoftPFReq_mshr_miss_rate::total     0.153846                       # mshr miss rate for SoftPFReq accesses
system.cpu.dcache.SoftPFReq_avg_mshr_miss_latency::.cpu.data       117500                       # average SoftPFReq mshr miss latency
system.cpu.dcache.SoftPFReq_avg_mshr_miss_latency::total       117500                       # average SoftPFReq mshr miss latency
system.cpu.dcache.LoadLockedReq_hits::.cpu.data           13                       # number of LoadLockedReq hits
system.cpu.dcache.LoadLockedReq_hits::total           13                       # number of LoadLockedReq hits
system.cpu.dcache.LoadLockedReq_misses::.cpu.data            1                       # number of LoadLockedReq misses
system.cpu.dcache.LoadLockedReq_misses::total            1                       # number of LoadLockedReq misses
system.cpu.dcache.LoadLockedReq_miss_latency::.cpu.data        13000                       # number of LoadLockedReq miss cycles
system.cpu.dcache.LoadLockedReq_miss_latency::total        13000                       # number of LoadLockedReq miss cycles
system.cpu.dcache.LoadLockedReq_accesses::.cpu.data           14                       # number of LoadLockedReq accesses(hits+misses)
system.cpu.dcache.LoadLockedReq_accesses::total           14                       # number of LoadLockedReq accesses(hits+misses)
system.cpu.dcache.LoadLockedReq_miss_rate::.cpu.data     0.071429                       # miss rate for LoadLockedReq accesses
system.cpu.dcache.LoadLockedReq_miss_rate::total     0.071429                       # miss rate for LoadLockedReq accesses
system.cpu.dcache.LoadLockedReq_avg_miss_latency::.cpu.data        13000                       # average LoadLockedReq miss latency
system.cpu.dcache.LoadLockedReq_avg_miss_latency::total        13000                       # average LoadLockedReq miss latency
system.cpu.dcache.LoadLockedReq_mshr_misses::.cpu.data            1                       # number of LoadLockedReq MSHR misses
system.cpu.dcache.LoadLockedReq_mshr_misses::total            1                       # number of LoadLockedReq MSHR misses
system.cpu.dcache.LoadLockedReq_mshr_miss_latency::.cpu.data        12000                       # number of LoadLockedReq MSHR miss cycles
system.cpu.dcache.LoadLockedReq_mshr_miss_latency::total        12000                       # number of LoadLockedReq MSHR miss cycles
system.cpu.dcache.LoadLockedReq_mshr_miss_rate::.cpu.data     0.071429                       # mshr miss rate for LoadLockedReq accesses
system.cpu.dcache.LoadLockedReq_mshr_miss_rate::total     0.071429                       # mshr miss rate for LoadLockedReq accesses
system.cpu.dcache.LoadLockedReq_avg_mshr_miss_latency::.cpu.data        12000                       # average LoadLockedReq mshr miss latency
system.cpu.dcache.LoadLockedReq_avg_mshr_miss_latency::total        12000                       # average LoadLockedReq mshr miss latency
system.cpu.dcache.StoreCondReq_hits::.cpu.data           14                       # number of StoreCondReq hits
system.cpu.dcache.StoreCondReq_hits::total           14                       # number of StoreCondReq hits
system.cpu.dcache.StoreCondReq_accesses::.cpu.data           14                       # number of StoreCondReq accesses(hits+misses)
system.cpu.dcache.StoreCondReq_accesses::total           14                       # number of StoreCondReq accesses(hits+misses)
system.cpu.dcache.power_state.pwrStateResidencyTicks::UNDEFINED 129372015500                       # Cumulative time (in ticks) in various power states
system.cpu.dcache.tags.tagsinuse          1023.086818                       # Cycle average of tags in use
system.cpu.dcache.tags.total_refs            48041854                       # Total number of references to valid blocks.
system.cpu.dcache.tags.sampled_refs            765645                       # Sample count of references to valid blocks.
system.cpu.dcache.tags.avg_refs             62.746905                       # Average number of references to valid blocks.
system.cpu.dcache.tags.warmup_cycle            186500                       # Cycle when the warmup percentage was hit.
system.cpu.dcache.tags.occ_blocks::.cpu.data  1023.086818                       # Average occupied blocks per requestor
system.cpu.dcache.tags.occ_percent::.cpu.data     0.999108                       # Average percentage of cache occupancy
system.cpu.dcache.tags.occ_percent::total     0.999108                       # Average percentage of cache occupancy
system.cpu.dcache.tags.occ_task_id_blocks::1024         1024                       # Occupied blocks per task id
system.cpu.dcache.tags.age_task_id_blocks_1024::0           58                       # Occupied blocks per task id
system.cpu.dcache.tags.age_task_id_blocks_1024::1          512                       # Occupied blocks per task id
system.cpu.dcache.tags.age_task_id_blocks_1024::2          454                       # Occupied blocks per task id
system.cpu.dcache.tags.occ_task_id_percent::1024            1                       # Percentage of cache occupancy per task id
system.cpu.dcache.tags.tag_accesses          49560964                       # Number of tag accesses
system.cpu.dcache.tags.data_accesses         49560964                       # Number of data accesses
system.cpu.dcache.tags.power_state.pwrStateResidencyTicks::UNDEFINED 129372015500                       # Cumulative time (in ticks) in various power states
system.cpu.dtb.instHits                             0                       # ITB inst hits
system.cpu.dtb.instMisses                           0                       # ITB inst misses
system.cpu.dtb.readHits                             0                       # DTB read hits
system.cpu.dtb.readMisses                           0                       # DTB read misses
system.cpu.dtb.writeHits                            0                       # DTB write hits
system.cpu.dtb.writeMisses                          0                       # DTB write misses
system.cpu.dtb.inserts                              0                       # Number of times an entry is inserted into the TLB
system.cpu.dtb.flushTlb                             0                       # Number of times complete TLB was flushed
system.cpu.dtb.flushTlbMva                          0                       # Number of times TLB was flushed by MVA
system.cpu.dtb.flushTlbMvaAsid                      0                       # Number of times TLB was flushed by MVA & ASID
system.cpu.dtb.flushTlbAsid                         0                       # Number of times TLB was flushed by ASID
system.cpu.dtb.flushedEntries                       0                       # Number of entries that have been flushed from TLB
system.cpu.dtb.alignFaults                          0                       # Number of TLB faults due to alignment restrictions
system.cpu.dtb.prefetchFaults                       0                       # Number of TLB faults due to prefetch
system.cpu.dtb.domainFaults                         0                       # Number of TLB faults due to domain restrictions
system.cpu.dtb.permsFaults                          0                       # Number of TLB faults due to permissions restrictions
system.cpu.dtb.readAccesses                         0                       # DTB read accesses
system.cpu.dtb.writeAccesses                        0                       # DTB write accesses
system.cpu.dtb.instAccesses                         0                       # ITB inst accesses
system.cpu.dtb.hits                                 0                       # Total TLB (inst and data) hits
system.cpu.dtb.misses                               0                       # Total TLB (inst and data) misses
system.cpu.dtb.accesses                             0                       # Total TLB (inst and data) accesses
system.cpu.dtb.stage2_mmu.stage2_tlb.instHits            0                       # ITB inst hits
system.cpu.dtb.stage2_mmu.stage2_tlb.instMisses            0                       # ITB inst misses
system.cpu.dtb.stage2_mmu.stage2_tlb.readHits            0                       # DTB read hits
system.cpu.dtb.stage2_mmu.stage2_tlb.readMisses            0                       # DTB read misses
system.cpu.dtb.stage2_mmu.stage2_tlb.writeHits            0                       # DTB write hits
system.cpu.dtb.stage2_mmu.stage2_tlb.writeMisses            0                       # DTB write misses
system.cpu.dtb.stage2_mmu.stage2_tlb.inserts            0                       # Number of times an entry is inserted into the TLB
system.cpu.dtb.stage2_mmu.stage2_tlb.flushTlb            0                       # Number of times complete TLB was flushed
system.cpu.dtb.stage2_mmu.stage2_tlb.flushTlbMva            0                       # Number of times TLB was flushed by MVA
system.cpu.dtb.stage2_mmu.stage2_tlb.flushTlbMvaAsid            0                       # Number of times TLB was flushed by MVA & ASID
system.cpu.dtb.stage2_mmu.stage2_tlb.flushTlbAsid            0                       # Number of times TLB was flushed by ASID
system.cpu.dtb.stage2_mmu.stage2_tlb.flushedEntries            0                       # Number of entries that have been flushed from TLB
system.cpu.dtb.stage2_mmu.stage2_tlb.alignFaults            0                       # Number of TLB faults due to alignment restrictions
system.cpu.dtb.stage2_mmu.stage2_tlb.prefetchFaults            0                       # Number of TLB faults due to prefetch
system.cpu.dtb.stage2_mmu.stage2_tlb.domainFaults            0                       # Number of TLB faults due to domain restrictions
system.cpu.dtb.stage2_mmu.stage2_tlb.permsFaults            0                       # Number of TLB faults due to permissions restrictions
system.cpu.dtb.stage2_mmu.stage2_tlb.readAccesses            0                       # DTB read accesses
system.cpu.dtb.stage2_mmu.stage2_tlb.writeAccesses            0                       # DTB write accesses
system.cpu.dtb.stage2_mmu.stage2_tlb.instAccesses            0                       # ITB inst accesses
system.cpu.dtb.stage2_mmu.stage2_tlb.hits            0                       # Total TLB (inst and data) hits
system.cpu.dtb.stage2_mmu.stage2_tlb.misses            0                       # Total TLB (inst and data) misses
system.cpu.dtb.stage2_mmu.stage2_tlb.accesses            0                       # Total TLB (inst and data) accesses
system.cpu.dtb.stage2_mmu.stage2_tlb.walker.walks            0                       # Table walker walks requested
system.cpu.dtb.stage2_mmu.stage2_tlb.walker.requestOrigin_Requested::Data            0                       # Table walker requests started/completed, data/inst
system.cpu.dtb.stage2_mmu.stage2_tlb.walker.requestOrigin_Requested::Inst            0                       # Table walker requests started/completed, data/inst
system.cpu.dtb.stage2_mmu.stage2_tlb.walker.requestOrigin_Requested::total            0                       # Table walker requests started/completed, data/inst
system.cpu.dtb.stage2_mmu.stage2_tlb.walker.requestOrigin_Completed::Data            0                       # Table walker requests started/completed, data/inst
system.cpu.dtb.stage2_mmu.stage2_tlb.walker.requestOrigin_Completed::Inst            0                       # Table walker requests started/completed, data/inst
system.cpu.dtb.stage2_mmu.stage2_tlb.walker.requestOrigin_Completed::total            0                       # Table walker requests started/completed, data/inst
system.cpu.dtb.stage2_mmu.stage2_tlb.walker.requestOrigin::total            0                       # Table walker requests started/completed, data/inst
system.cpu.dtb.stage2_mmu.stage2_tlb.walker.power_state.pwrStateResidencyTicks::UNDEFINED 129372015500                       # Cumulative time (in ticks) in various power states
system.cpu.dtb.walker.walks                         0                       # Table walker walks requested
system.cpu.dtb.walker.requestOrigin_Requested::Data            0                       # Table walker requests started/completed, data/inst
system.cpu.dtb.walker.requestOrigin_Requested::Inst            0                       # Table walker requests started/completed, data/inst
system.cpu.dtb.walker.requestOrigin_Requested::total            0                       # Table walker requests started/completed, data/inst
system.cpu.dtb.walker.requestOrigin_Completed::Data            0                       # Table walker requests started/completed, data/inst
system.cpu.dtb.walker.requestOrigin_Completed::Inst            0                       # Table walker requests started/completed, data/inst
system.cpu.dtb.walker.requestOrigin_Completed::total            0                       # Table walker requests started/completed, data/inst
system.cpu.dtb.walker.requestOrigin::total            0                       # Table walker requests started/completed, data/inst
system.cpu.dtb.walker.power_state.pwrStateResidencyTicks::UNDEFINED 129372015500                       # Cumulative time (in ticks) in various power states
system.cpu.fetch2.intInstructions            49674967                       # Number of integer instructions successfully decoded
system.cpu.fetch2.fpInstructions                    0                       # Number of floating point instructions successfully decoded
system.cpu.fetch2.vecInstructions                   0                       # Number of SIMD instructions successfully decoded
system.cpu.fetch2.loadInstructions           37097126                       # Number of memory load instructions successfully decoded
system.cpu.fetch2.storeInstructions          13161266                       # Number of memory store instructions successfully decoded
system.cpu.fetch2.amoInstructions                   0                       # Number of memory atomic instructions successfully decoded
system.cpu.icache.demand_hits::.cpu.inst      4246676                       # number of demand (read+write) hits
system.cpu.icache.demand_hits::total          4246676                       # number of demand (read+write) hits
system.cpu.icache.overall_hits::.cpu.inst      4246676                       # number of overall hits
system.cpu.icache.overall_hits::total         4246676                       # number of overall hits
system.cpu.icache.demand_misses::.cpu.inst          450                       # number of demand (read+write) misses
system.cpu.icache.demand_misses::total            450                       # number of demand (read+write) misses
system.cpu.icache.overall_misses::.cpu.inst          450                       # number of overall misses
system.cpu.icache.overall_misses::total           450                       # number of overall misses
system.cpu.icache.demand_miss_latency::.cpu.inst     30419500                       # number of demand (read+write) miss cycles
system.cpu.icache.demand_miss_latency::total     30419500                       # number of demand (read+write) miss cycles
system.cpu.icache.overall_miss_latency::.cpu.inst     30419500                       # number of overall miss cycles
system.cpu.icache.overall_miss_latency::total     30419500                       # number of overall miss cycles
system.cpu.icache.demand_accesses::.cpu.inst      4247126                       # number of demand (read+write) accesses
system.cpu.icache.demand_accesses::total      4247126                       # number of demand (read+write) accesses
system.cpu.icache.overall_accesses::.cpu.inst      4247126                       # number of overall (read+write) accesses
system.cpu.icache.overall_accesses::total      4247126                       # number of overall (read+write) accesses
system.cpu.icache.demand_miss_rate::.cpu.inst     0.000106                       # miss rate for demand accesses
system.cpu.icache.demand_miss_rate::total     0.000106                       # miss rate for demand accesses
system.cpu.icache.overall_miss_rate::.cpu.inst     0.000106                       # miss rate for overall accesses
system.cpu.icache.overall_miss_rate::total     0.000106                       # miss rate for overall accesses
system.cpu.icache.demand_avg_miss_latency::.cpu.inst 67598.888889                       # average overall miss latency
system.cpu.icache.demand_avg_miss_latency::total 67598.888889                       # average overall miss latency
system.cpu.icache.overall_avg_miss_latency::.cpu.inst 67598.888889                       # average overall miss latency
system.cpu.icache.overall_avg_miss_latency::total 67598.888889                       # average overall miss latency
system.cpu.icache.blocked_cycles::no_mshrs            0                       # number of cycles access was blocked
system.cpu.icache.blocked_cycles::no_targets            0                       # number of cycles access was blocked
system.cpu.icache.blocked::no_mshrs                 0                       # number of cycles access was blocked
system.cpu.icache.blocked::no_targets               0                       # number of cycles access was blocked
system.cpu.icache.avg_blocked_cycles::no_mshrs          nan                       # average number of cycles each access was blocked
system.cpu.icache.avg_blocked_cycles::no_targets          nan                       # average number of cycles each access was blocked
system.cpu.icache.writebacks::.writebacks          210                       # number of writebacks
system.cpu.icache.writebacks::total               210                       # number of writebacks
system.cpu.icache.demand_mshr_misses::.cpu.inst          450                       # number of demand (read+write) MSHR misses
system.cpu.icache.demand_mshr_misses::total          450                       # number of demand (read+write) MSHR misses
system.cpu.icache.overall_mshr_misses::.cpu.inst          450                       # number of overall MSHR misses
system.cpu.icache.overall_mshr_misses::total          450                       # number of overall MSHR misses
system.cpu.icache.demand_mshr_miss_latency::.cpu.inst     29969500                       # number of demand (read+write) MSHR miss cycles
system.cpu.icache.demand_mshr_miss_latency::total     29969500                       # number of demand (read+write) MSHR miss cycles
system.cpu.icache.overall_mshr_miss_latency::.cpu.inst     29969500                       # number of overall MSHR miss cycles
system.cpu.icache.overall_mshr_miss_latency::total     29969500                       # number of overall MSHR miss cycles
system.cpu.icache.demand_mshr_miss_rate::.cpu.inst     0.000106                       # mshr miss rate for demand accesses
system.cpu.icache.demand_mshr_miss_rate::total     0.000106                       # mshr miss rate for demand accesses
system.cpu.icache.overall_mshr_miss_rate::.cpu.inst     0.000106                       # mshr miss rate for overall accesses
system.cpu.icache.overall_mshr_miss_rate::total     0.000106                       # mshr miss rate for overall accesses
system.cpu.icache.demand_avg_mshr_miss_latency::.cpu.inst 66598.888889                       # average overall mshr miss latency
system.cpu.icache.demand_avg_mshr_miss_latency::total 66598.888889                       # average overall mshr miss latency
system.cpu.icache.overall_avg_mshr_miss_latency::.cpu.inst 66598.888889                       # average overall mshr miss latency
system.cpu.icache.overall_avg_mshr_miss_latency::total 66598.888889                       # average overall mshr miss latency
system.cpu.icache.replacements                    210                       # number of replacements
system.cpu.icache.ReadReq_hits::.cpu.inst      4246676                       # number of ReadReq hits
system.cpu.icache.ReadReq_hits::total         4246676                       # number of ReadReq hits
system.cpu.icache.ReadReq_misses::.cpu.inst          450                       # number of ReadReq misses
system.cpu.icache.ReadReq_misses::total           450                       # number of ReadReq misses
system.cpu.icache.ReadReq_miss_latency::.cpu.inst     30419500                       # number of ReadReq miss cycles
system.cpu.icache.ReadReq_miss_latency::total     30419500                       # number of ReadReq miss cycles
system.cpu.icache.ReadReq_accesses::.cpu.inst      4247126                       # number of ReadReq accesses(hits+misses)
system.cpu.icache.ReadReq_accesses::total      4247126                       # number of ReadReq accesses(hits+misses)
system.cpu.icache.ReadReq_miss_rate::.cpu.inst     0.000106                       # miss rate for ReadReq accesses
system.cpu.icache.ReadReq_miss_rate::total     0.000106                       # miss rate for ReadReq accesses
system.cpu.icache.ReadReq_avg_miss_latency::.cpu.inst 67598.888889                       # average ReadReq miss latency
system.cpu.icache.ReadReq_avg_miss_latency::total 67598.888889                       # average ReadReq miss latency
system.cpu.icache.ReadReq_mshr_misses::.cpu.inst          450                       # number of ReadReq MSHR misses
system.cpu.icache.ReadReq_mshr_misses::total          450                       # number of ReadReq MSHR misses
system.cpu.icache.ReadReq_mshr_miss_latency::.cpu.inst     29969500                       # number of ReadReq MSHR miss cycles
system.cpu.icache.ReadReq_mshr_miss_latency::total     29969500                       # number of ReadReq MSHR miss cycles
system.cpu.icache.ReadReq_mshr_miss_rate::.cpu.inst     0.000106                       # mshr miss rate for ReadReq accesses
system.cpu.icache.ReadReq_mshr_miss_rate::total     0.000106                       # mshr miss rate for ReadReq accesses
system.cpu.icache.ReadReq_avg_mshr_miss_latency::.cpu.inst 66598.888889                       # average ReadReq mshr miss latency
system.cpu.icache.ReadReq_avg_mshr_miss_latency::total 66598.888889                       # average ReadReq mshr miss latency
system.cpu.icache.power_state.pwrStateResidencyTicks::UNDEFINED 129372015500                       # Cumulative time (in ticks) in various power states
system.cpu.icache.tags.tagsinuse           239.965298                       # Cycle average of tags in use
system.cpu.icache.tags.total_refs             4247126                       # Total number of references to valid blocks.
system.cpu.icache.tags.sampled_refs               450                       # Sample count of references to valid blocks.
system.cpu.icache.tags.avg_refs           9438.057778                       # Average number of references to valid blocks.
system.cpu.icache.tags.warmup_cycle             92500                       # Cycle when the warmup percentage was hit.
system.cpu.icache.tags.occ_blocks::.cpu.inst   239.965298                       # Average occupied blocks per requestor
system.cpu.icache.tags.occ_percent::.cpu.inst     0.468682                       # Average percentage of cache occupancy
system.cpu.icache.tags.occ_percent::total     0.468682                       # Average percentage of cache occupancy
system.cpu.icache.tags.occ_task_id_blocks::1024          240                       # Occupied blocks per task id
system.cpu.icache.tags.age_task_id_blocks_1024::4          240                       # Occupied blocks per task id
system.cpu.icache.tags.occ_task_id_percent::1024     0.468750                       # Percentage of cache occupancy per task id
system.cpu.icache.tags.tag_accesses           4247576                       # Number of tag accesses
system.cpu.icache.tags.data_accesses          4247576                       # Number of data accesses
system.cpu.icache.tags.power_state.pwrStateResidencyTicks::UNDEFINED 129372015500                       # Cumulative time (in ticks) in various power states
system.cpu.itb.instHits                             0                       # ITB inst hits
system.cpu.itb.instMisses                           0                       # ITB inst misses
system.cpu.itb.readHits                             0                       # DTB read hits
system.cpu.itb.readMisses                           0                       # DTB read misses
system.cpu.itb.writeHits                            0                       # DTB write hits
system.cpu.itb.writeMisses                          0                       # DTB write misses
system.cpu.itb.inserts                              0                       # Number of times an entry is inserted into the TLB
system.cpu.itb.flushTlb                             0                       # Number of times complete TLB was flushed
system.cpu.itb.flushTlbMva                          0                       # Number of times TLB was flushed by MVA
system.cpu.itb.flushTlbMvaAsid                      0                       # Number of times TLB was flushed by MVA & ASID
system.cpu.itb.flushTlbAsid                         0                       # Number of times TLB was flushed by ASID
system.cpu.itb.flushedEntries                       0                       # Number of entries that have been flushed from TLB
system.cpu.itb.alignFaults                          0                       # Number of TLB faults due to alignment restrictions
system.cpu.itb.prefetchFaults                       0                       # Number of TLB faults due to prefetch
system.cpu.itb.domainFaults                         0                       # Number of TLB faults due to domain restrictions
system.cpu.itb.permsFaults                          0                       # Number of TLB faults due to permissions restrictions
system.cpu.itb.readAccesses                         0                       # DTB read accesses
system.cpu.itb.writeAccesses                        0                       # DTB write accesses
system.cpu.itb.instAccesses                         0                       # ITB inst accesses
system.cpu.itb.hits                                 0                       # Total TLB (inst and data) hits
system.cpu.itb.misses                               0                       # Total TLB (inst and data) misses
system.cpu.itb.accesses                             0                       # Total TLB (inst and data) accesses
system.cpu.itb.stage2_mmu.stage2_tlb.instHits            0                       # ITB inst hits
system.cpu.itb.stage2_mmu.stage2_tlb.instMisses            0                       # ITB inst misses
system.cpu.itb.stage2_mmu.stage2_tlb.readHits            0                       # DTB read hits
system.cpu.itb.stage2_mmu.stage2_tlb.readMisses            0                       # DTB read misses
system.cpu.itb.stage2_mmu.stage2_tlb.writeHits            0                       # DTB write hits
system.cpu.itb.stage2_mmu.stage2_tlb.writeMisses            0                       # DTB write misses
system.cpu.itb.stage2_mmu.stage2_tlb.inserts            0                       # Number of times an entry is inserted into the TLB
system.cpu.itb.stage2_mmu.stage2_tlb.flushTlb            0                       # Number of times complete TLB was flushed
system.cpu.itb.stage2_mmu.stage2_tlb.flushTlbMva            0                       # Number of times TLB was flushed by MVA
system.cpu.itb.stage2_mmu.stage2_tlb.flushTlbMvaAsid            0                       # Number of times TLB was flushed by MVA & ASID
system.cpu.itb.stage2_mmu.stage2_tlb.flushTlbAsid            0                       # Number of times TLB was flushed by ASID
system.cpu.itb.stage2_mmu.stage2_tlb.flushedEntries            0                       # Number of entries that have been flushed from TLB
system.cpu.itb.stage2_mmu.stage2_tlb.alignFaults            0                       # Number of TLB faults due to alignment restrictions
system.cpu.itb.stage2_mmu.stage2_tlb.prefetchFaults            0                       # Number of TLB faults due to prefetch
system.cpu.itb.stage2_mmu.stage2_tlb.domainFaults            0                       # Number of TLB faults due to domain restrictions
system.cpu.itb.stage2_mmu.stage2_tlb.permsFaults            0                       # Number of TLB faults due to permissions restrictions
system.cpu.itb.stage2_mmu.stage2_tlb.readAccesses            0                       # DTB read accesses
system.cpu.itb.stage2_mmu.stage2_tlb.writeAccesses            0                       # DTB write accesses
system.cpu.itb.stage2_mmu.stage2_tlb.instAccesses            0                       # ITB inst accesses
system.cpu.itb.stage2_mmu.stage2_tlb.hits            0                       # Total TLB (inst and data) hits
system.cpu.itb.stage2_mmu.stage2_tlb.misses            0                       # Total TLB (inst and data) misses
system.cpu.itb.stage2_mmu.stage2_tlb.accesses            0                       # Total TLB (inst and data) accesses
system.cpu.itb.stage2_mmu.stage2_tlb.walker.walks            0                       # Table walker walks requested
system.cpu.itb.stage2_mmu.stage2_tlb.walker.requestOrigin_Requested::Data            0                       # Table walker requests started/completed, data/inst
system.cpu.itb.stage2_mmu.stage2_tlb.walker.requestOrigin_Requested::Inst            0                       # Table walker requests started/completed, data/inst
system.cpu.itb.stage2_mmu.stage2_tlb.walker.requestOrigin_Requested::total            0                       # Table walker requests started/completed, data/inst
system.cpu.itb.stage2_mmu.stage2_tlb.walker.requestOrigin_Completed::Data            0                       # Table walker requests started/completed, data/inst
system.cpu.itb.stage2_mmu.stage2_tlb.walker.requestOrigin_Completed::Inst            0                       # Table walker requests started/completed, data/inst
system.cpu.itb.stage2_mmu.stage2_tlb.walker.requestOrigin_Completed::total            0                       # Table walker requests started/completed, data/inst
system.cpu.itb.stage2_mmu.stage2_tlb.walker.requestOrigin::total            0                       # Table walker requests started/completed, data/inst
system.cpu.itb.stage2_mmu.stage2_tlb.walker.power_state.pwrStateResidencyTicks::UNDEFINED 129372015500                       # Cumulative time (in ticks) in various power states
system.cpu.itb.walker.walks                         0                       # Table walker walks requested
system.cpu.itb.walker.requestOrigin_Requested::Data            0                       # Table walker requests started/completed, data/inst
system.cpu.itb.walker.requestOrigin_Requested::Inst            0                       # Table walker requests started/completed, data/inst
system.cpu.itb.walker.requestOrigin_Requested::total            0                       # Table walker requests started/completed, data/inst
system.cpu.itb.walker.requestOrigin_Completed::Data            0                       # Table walker requests started/completed, data/inst
system.cpu.itb.walker.requestOrigin_Completed::Inst            0                       # Table walker requests started/completed, data/inst
system.cpu.itb.walker.requestOrigin_Completed::total            0                       # Table walker requests started/completed, data/inst
system.cpu.itb.walker.requestOrigin::total            0                       # Table walker requests started/completed, data/inst
system.cpu.itb.walker.power_state.pwrStateResidencyTicks::UNDEFINED 129372015500                       # Cumulative time (in ticks) in various power states
system.cpu.power_state.pwrStateResidencyTicks::ON 129372015500                       # Cumulative time (in ticks) in various power states
system.cpu.thread_0.numInsts                100000000                       # Number of Instructions committed
system.cpu.thread_0.numOps                  100003638                       # Number of Ops committed
system.cpu.thread_0.numMemRefs                      0                       # Number of Memory References
system.cpu_clk_domain.clock                       500                       # Clock period in ticks
system.cpu_voltage_domain.voltage                   1                       # Voltage in Volts
system.l2.demand_hits::.cpu.inst                  115                       # number of demand (read+write) hits
system.l2.demand_hits::.cpu.data                21607                       # number of demand (read+write) hits
system.l2.demand_hits::total                    21722                       # number of demand (read+write) hits
system.l2.overall_hits::.cpu.inst                 115                       # number of overall hits
system.l2.overall_hits::.cpu.data               21607                       # number of overall hits
system.l2.overall_hits::total                   21722                       # number of overall hits
system.l2.demand_misses::.cpu.inst                335                       # number of demand (read+write) misses
system.l2.demand_misses::.cpu.data             744038                       # number of demand (read+write) misses
system.l2.demand_misses::total                 744373                       # number of demand (read+write) misses
system.l2.overall_misses::.cpu.inst               335                       # number of overall misses
system.l2.overall_misses::.cpu.data            744038                       # number of overall misses
system.l2.overall_misses::total                744373                       # number of overall misses
system.l2.demand_miss_latency::.cpu.inst     28002000                       # number of demand (read+write) miss cycles
system.l2.demand_miss_latency::.cpu.data  69721366500                       # number of demand (read+write) miss cycles
system.l2.demand_miss_latency::total      69749368500                       # number of demand (read+write) miss cycles
system.l2.overall_miss_latency::.cpu.inst     28002000                       # number of overall miss cycles
system.l2.overall_miss_latency::.cpu.data  69721366500                       # number of overall miss cycles
system.l2.overall_miss_latency::total     69749368500                       # number of overall miss cycles
system.l2.demand_accesses::.cpu.inst              450                       # number of demand (read+write) accesses
system.l2.demand_accesses::.cpu.data           765645                       # number of demand (read+write) accesses
system.l2.demand_accesses::total               766095                       # number of demand (read+write) accesses
system.l2.overall_accesses::.cpu.inst             450                       # number of overall (read+write) accesses
system.l2.overall_accesses::.cpu.data          765645                       # number of overall (read+write) accesses
system.l2.overall_accesses::total              766095                       # number of overall (read+write) accesses
system.l2.demand_miss_rate::.cpu.inst        0.744444                       # miss rate for demand accesses
system.l2.demand_miss_rate::.cpu.data        0.971779                       # miss rate for demand accesses
system.l2.demand_miss_rate::total            0.971646                       # miss rate for demand accesses
system.l2.overall_miss_rate::.cpu.inst       0.744444                       # miss rate for overall accesses
system.l2.overall_miss_rate::.cpu.data       0.971779                       # miss rate for overall accesses
system.l2.overall_miss_rate::total           0.971646                       # miss rate for overall accesses
system.l2.demand_avg_miss_latency::.cpu.inst 83588.059701                       # average overall miss latency
system.l2.demand_avg_miss_latency::.cpu.data 93706.728017                       # average overall miss latency
system.l2.demand_avg_miss_latency::total 93702.174179                       # average overall miss latency
system.l2.overall_avg_miss_latency::.cpu.inst 83588.059701                       # average overall miss latency
system.l2.overall_avg_miss_latency::.cpu.data 93706.728017                       # average overall miss latency
system.l2.overall_avg_miss_latency::total 93702.174179                       # average overall miss latency
system.l2.blocked_cycles::no_mshrs                  0                       # number of cycles access was blocked
system.l2.blocked_cycles::no_targets                0                       # number of cycles access was blocked
system.l2.blocked::no_mshrs                         0                       # number of cycles access was blocked
system.l2.blocked::no_targets                       0                       # number of cycles access was blocked
system.l2.avg_blocked_cycles::no_mshrs            nan                       # average number of cycles each access was blocked
system.l2.avg_blocked_cycles::no_targets          nan                       # average number of cycles each access was blocked
system.l2.writebacks::.writebacks              711007                       # number of writebacks
system.l2.writebacks::total                    711007                       # number of writebacks
system.l2.demand_mshr_hits::.cpu.data               3                       # number of demand (read+write) MSHR hits
system.l2.demand_mshr_hits::total                   3                       # number of demand (read+write) MSHR hits
system.l2.overall_mshr_hits::.cpu.data              3                       # number of overall MSHR hits
system.l2.overall_mshr_hits::total                  3                       # number of overall MSHR hits
system.l2.demand_mshr_misses::.cpu.inst           335                       # number of demand (read+write) MSHR misses
system.l2.demand_mshr_misses::.cpu.data        744035                       # number of demand (read+write) MSHR misses
system.l2.demand_mshr_misses::total            744370                       # number of demand (read+write) MSHR misses
system.l2.overall_mshr_misses::.cpu.inst          335                       # number of overall MSHR misses
system.l2.overall_mshr_misses::.cpu.data       744035                       # number of overall MSHR misses
system.l2.overall_mshr_misses::total           744370                       # number of overall MSHR misses
system.l2.demand_mshr_miss_latency::.cpu.inst     24652000                       # number of demand (read+write) MSHR miss cycles
system.l2.demand_mshr_miss_latency::.cpu.data  62280802000                       # number of demand (read+write) MSHR miss cycles
system.l2.demand_mshr_miss_latency::total  62305454000                       # number of demand (read+write) MSHR miss cycles
system.l2.overall_mshr_miss_latency::.cpu.inst     24652000                       # number of overall MSHR miss cycles
system.l2.overall_mshr_miss_latency::.cpu.data  62280802000                       # number of overall MSHR miss cycles
system.l2.overall_mshr_miss_latency::total  62305454000                       # number of overall MSHR miss cycles
system.l2.demand_mshr_miss_rate::.cpu.inst     0.744444                       # mshr miss rate for demand accesses
system.l2.demand_mshr_miss_rate::.cpu.data     0.971775                       # mshr miss rate for demand accesses
system.l2.demand_mshr_miss_rate::total       0.971642                       # mshr miss rate for demand accesses
system.l2.overall_mshr_miss_rate::.cpu.inst     0.744444                       # mshr miss rate for overall accesses
system.l2.overall_mshr_miss_rate::.cpu.data     0.971775                       # mshr miss rate for overall accesses
system.l2.overall_mshr_miss_rate::total      0.971642                       # mshr miss rate for overall accesses
system.l2.demand_avg_mshr_miss_latency::.cpu.inst 73588.059701                       # average overall mshr miss latency
system.l2.demand_avg_mshr_miss_latency::.cpu.data 83706.817556                       # average overall mshr miss latency
system.l2.demand_avg_mshr_miss_latency::total 83702.263659                       # average overall mshr miss latency
system.l2.overall_avg_mshr_miss_latency::.cpu.inst 73588.059701                       # average overall mshr miss latency
system.l2.overall_avg_mshr_miss_latency::.cpu.data 83706.817556                       # average overall mshr miss latency
system.l2.overall_avg_mshr_miss_latency::total 83702.263659                       # average overall mshr miss latency
system.l2.replacements                         712152                       # number of replacements
system.l2.WritebackDirty_hits::.writebacks       758728                       # number of WritebackDirty hits
system.l2.WritebackDirty_hits::total           758728                       # number of WritebackDirty hits
system.l2.WritebackDirty_accesses::.writebacks       758728                       # number of WritebackDirty accesses(hits+misses)
system.l2.WritebackDirty_accesses::total       758728                       # number of WritebackDirty accesses(hits+misses)
system.l2.WritebackClean_hits::.writebacks          181                       # number of WritebackClean hits
system.l2.WritebackClean_hits::total              181                       # number of WritebackClean hits
system.l2.WritebackClean_accesses::.writebacks          181                       # number of WritebackClean accesses(hits+misses)
system.l2.WritebackClean_accesses::total          181                       # number of WritebackClean accesses(hits+misses)
system.l2.ReadExReq_hits::.cpu.data             10165                       # number of ReadExReq hits
system.l2.ReadExReq_hits::total                 10165                       # number of ReadExReq hits
system.l2.ReadExReq_misses::.cpu.data          743759                       # number of ReadExReq misses
system.l2.ReadExReq_misses::total              743759                       # number of ReadExReq misses
system.l2.ReadExReq_miss_latency::.cpu.data  69696370500                       # number of ReadExReq miss cycles
system.l2.ReadExReq_miss_latency::total   69696370500                       # number of ReadExReq miss cycles
system.l2.ReadExReq_accesses::.cpu.data        753924                       # number of ReadExReq accesses(hits+misses)
system.l2.ReadExReq_accesses::total            753924                       # number of ReadExReq accesses(hits+misses)
system.l2.ReadExReq_miss_rate::.cpu.data     0.986517                       # miss rate for ReadExReq accesses
system.l2.ReadExReq_miss_rate::total         0.986517                       # miss rate for ReadExReq accesses
system.l2.ReadExReq_avg_miss_latency::.cpu.data 93708.271765                       # average ReadExReq miss latency
system.l2.ReadExReq_avg_miss_latency::total 93708.271765                       # average ReadExReq miss latency
system.l2.ReadExReq_mshr_misses::.cpu.data       743759                       # number of ReadExReq MSHR misses
system.l2.ReadExReq_mshr_misses::total         743759                       # number of ReadExReq MSHR misses
system.l2.ReadExReq_mshr_miss_latency::.cpu.data  62258780500                       # number of ReadExReq MSHR miss cycles
system.l2.ReadExReq_mshr_miss_latency::total  62258780500                       # number of ReadExReq MSHR miss cycles
system.l2.ReadExReq_mshr_miss_rate::.cpu.data     0.986517                       # mshr miss rate for ReadExReq accesses
system.l2.ReadExReq_mshr_miss_rate::total     0.986517                       # mshr miss rate for ReadExReq accesses
system.l2.ReadExReq_avg_mshr_miss_latency::.cpu.data 83708.271765                       # average ReadExReq mshr miss latency
system.l2.ReadExReq_avg_mshr_miss_latency::total 83708.271765                       # average ReadExReq mshr miss latency
system.l2.ReadCleanReq_hits::.cpu.inst            115                       # number of ReadCleanReq hits
system.l2.ReadCleanReq_hits::total                115                       # number of ReadCleanReq hits
system.l2.ReadCleanReq_misses::.cpu.inst          335                       # number of ReadCleanReq misses
system.l2.ReadCleanReq_misses::total              335                       # number of ReadCleanReq misses
system.l2.ReadCleanReq_miss_latency::.cpu.inst     28002000                       # number of ReadCleanReq miss cycles
system.l2.ReadCleanReq_miss_latency::total     28002000                       # number of ReadCleanReq miss cycles
system.l2.ReadCleanReq_accesses::.cpu.inst          450                       # number of ReadCleanReq accesses(hits+misses)
system.l2.ReadCleanReq_accesses::total            450                       # number of ReadCleanReq accesses(hits+misses)
system.l2.ReadCleanReq_miss_rate::.cpu.inst     0.744444                       # miss rate for ReadCleanReq accesses
system.l2.ReadCleanReq_miss_rate::total      0.744444                       # miss rate for ReadCleanReq accesses
system.l2.ReadCleanReq_avg_miss_latency::.cpu.inst 83588.059701                       # average ReadCleanReq miss latency
system.l2.ReadCleanReq_avg_miss_latency::total 83588.059701                       # average ReadCleanReq miss latency
system.l2.ReadCleanReq_mshr_misses::.cpu.inst          335                       # number of ReadCleanReq MSHR misses
system.l2.ReadCleanReq_mshr_misses::total          335                       # number of ReadCleanReq MSHR misses
system.l2.ReadCleanReq_mshr_miss_latency::.cpu.inst     24652000                       # number of ReadCleanReq MSHR miss cycles
system.l2.ReadCleanReq_mshr_miss_latency::total     24652000                       # number of ReadCleanReq MSHR miss cycles
system.l2.ReadCleanReq_mshr_miss_rate::.cpu.inst     0.744444                       # mshr miss rate for ReadCleanReq accesses
system.l2.ReadCleanReq_mshr_miss_rate::total     0.744444                       # mshr miss rate for ReadCleanReq accesses
system.l2.ReadCleanReq_avg_mshr_miss_latency::.cpu.inst 73588.059701                       # average ReadCleanReq mshr miss latency
system.l2.ReadCleanReq_avg_mshr_miss_latency::total 73588.059701                       # average ReadCleanReq mshr miss latency
system.l2.ReadSharedReq_hits::.cpu.data         11442                       # number of ReadSharedReq hits
system.l2.ReadSharedReq_hits::total             11442                       # number of ReadSharedReq hits
system.l2.ReadSharedReq_misses::.cpu.data          279                       # number of ReadSharedReq misses
system.l2.ReadSharedReq_misses::total             279                       # number of ReadSharedReq misses
system.l2.ReadSharedReq_miss_latency::.cpu.data     24996000                       # number of ReadSharedReq miss cycles
system.l2.ReadSharedReq_miss_latency::total     24996000                       # number of ReadSharedReq miss cycles
system.l2.ReadSharedReq_accesses::.cpu.data        11721                       # number of ReadSharedReq accesses(hits+misses)
system.l2.ReadSharedReq_accesses::total         11721                       # number of ReadSharedReq accesses(hits+misses)
system.l2.ReadSharedReq_miss_rate::.cpu.data     0.023803                       # miss rate for ReadSharedReq accesses
system.l2.ReadSharedReq_miss_rate::total     0.023803                       # miss rate for ReadSharedReq accesses
system.l2.ReadSharedReq_avg_miss_latency::.cpu.data 89591.397849                       # average ReadSharedReq miss latency
system.l2.ReadSharedReq_avg_miss_latency::total 89591.397849                       # average ReadSharedReq miss latency
system.l2.ReadSharedReq_mshr_hits::.cpu.data            3                       # number of ReadSharedReq MSHR hits
system.l2.ReadSharedReq_mshr_hits::total            3                       # number of ReadSharedReq MSHR hits
system.l2.ReadSharedReq_mshr_misses::.cpu.data          276                       # number of ReadSharedReq MSHR misses
system.l2.ReadSharedReq_mshr_misses::total          276                       # number of ReadSharedReq MSHR misses
system.l2.ReadSharedReq_mshr_miss_latency::.cpu.data     22021500                       # number of ReadSharedReq MSHR miss cycles
system.l2.ReadSharedReq_mshr_miss_latency::total     22021500                       # number of ReadSharedReq MSHR miss cycles
system.l2.ReadSharedReq_mshr_miss_rate::.cpu.data     0.023547                       # mshr miss rate for ReadSharedReq accesses
system.l2.ReadSharedReq_mshr_miss_rate::total     0.023547                       # mshr miss rate for ReadSharedReq accesses
system.l2.ReadSharedReq_avg_mshr_miss_latency::.cpu.data 79788.043478                       # average ReadSharedReq mshr miss latency
system.l2.ReadSharedReq_avg_mshr_miss_latency::total 79788.043478                       # average ReadSharedReq mshr miss latency
system.l2.power_state.pwrStateResidencyTicks::UNDEFINED 129372015500                       # Cumulative time (in ticks) in various power states
system.l2.tags.tagsinuse                 32107.228316                       # Cycle average of tags in use
system.l2.tags.total_refs                     1525068                       # Total number of references to valid blocks.
system.l2.tags.sampled_refs                    744920                       # Sample count of references to valid blocks.
system.l2.tags.avg_refs                      2.047291                       # Average number of references to valid blocks.
system.l2.tags.warmup_cycle                     82000                       # Cycle when the warmup percentage was hit.
system.l2.tags.occ_blocks::.writebacks       0.989556                       # Average occupied blocks per requestor
system.l2.tags.occ_blocks::.cpu.inst        12.701117                       # Average occupied blocks per requestor
system.l2.tags.occ_blocks::.cpu.data     32093.537644                       # Average occupied blocks per requestor
system.l2.tags.occ_percent::.writebacks      0.000030                       # Average percentage of cache occupancy
system.l2.tags.occ_percent::.cpu.inst        0.000388                       # Average percentage of cache occupancy
system.l2.tags.occ_percent::.cpu.data        0.979417                       # Average percentage of cache occupancy
system.l2.tags.occ_percent::total            0.979835                       # Average percentage of cache occupancy
system.l2.tags.occ_task_id_blocks::1024         32768                       # Occupied blocks per task id
system.l2.tags.age_task_id_blocks_1024::0           58                       # Occupied blocks per task id
system.l2.tags.age_task_id_blocks_1024::1          512                       # Occupied blocks per task id
system.l2.tags.age_task_id_blocks_1024::2         5155                       # Occupied blocks per task id
system.l2.tags.age_task_id_blocks_1024::3        27043                       # Occupied blocks per task id
system.l2.tags.occ_task_id_percent::1024            1                       # Percentage of cache occupancy per task id
system.l2.tags.tag_accesses                   2269991                       # Number of tag accesses
system.l2.tags.data_accesses                  2269991                       # Number of data accesses
system.l2.tags.power_state.pwrStateResidencyTicks::UNDEFINED 129372015500                       # Cumulative time (in ticks) in various power states
system.mem_ctrls.avgPriority_.writebacks::samples   1422014.00                       # Average QoS priority value for accepted requests
system.mem_ctrls.avgPriority_.cpu.inst::samples       670.00                       # Average QoS priority value for accepted requests
system.mem_ctrls.avgPriority_.cpu.data::samples   1488070.00                       # Average QoS priority value for accepted requests
system.mem_ctrls.priorityMinLatency      0.000000018750                       # per QoS priority minimum request to response latency (s)
system.mem_ctrls.priorityMaxLatency      0.000659177750                       # per QoS priority maximum request to response latency (s)
system.mem_ctrls.numReadWriteTurnArounds        79030                       # Number of turnarounds from READ to WRITE
system.mem_ctrls.numWriteReadTurnArounds        79031                       # Number of turnarounds from WRITE to READ
system.mem_ctrls.numStayReadState             2912988                       # Number of times bus staying in READ state
system.mem_ctrls.numStayWriteState            1345823                       # Number of times bus staying in WRITE state
system.mem_ctrls.readReqs                      744370                       # Number of read requests accepted
system.mem_ctrls.writeReqs                     711007                       # Number of write requests accepted
system.mem_ctrls.readBursts                   1488740                       # Number of controller read bursts, including those serviced by the write queue
system.mem_ctrls.writeBursts                  1422014                       # Number of controller write bursts, including those merged in the write queue
system.mem_ctrls.servicedByWrQ                      0                       # Number of controller read bursts serviced by the write queue
system.mem_ctrls.mergedWrBursts                     0                       # Number of controller write bursts merged with an existing one
system.mem_ctrls.neitherReadNorWriteReqs            0                       # Number of requests that are neither read nor write
system.mem_ctrls.avgRdQLen                       2.00                       # Average read queue length when enqueuing
system.mem_ctrls.avgWrQLen                      24.66                       # Average write queue length when enqueuing
system.mem_ctrls.numRdRetry                         0                       # Number of times read queue was full causing retry
system.mem_ctrls.numWrRetry                         0                       # Number of times write queue was full causing retry
system.mem_ctrls.readPktSize::0                     0                       # Read request sizes (log2)
system.mem_ctrls.readPktSize::1                     0                       # Read request sizes (log2)
system.mem_ctrls.readPktSize::2                     0                       # Read request sizes (log2)
system.mem_ctrls.readPktSize::3                     0                       # Read request sizes (log2)
system.mem_ctrls.readPktSize::4                     0                       # Read request sizes (log2)
system.mem_ctrls.readPktSize::5                     0                       # Read request sizes (log2)
system.mem_ctrls.readPktSize::6               1488740                       # Read request sizes (log2)
system.mem_ctrls.readPktSize::7                     0                       # Read request sizes (log2)
system.mem_ctrls.writePktSize::0                    0                       # Write request sizes (log2)
system.mem_ctrls.writePktSize::1                    0                       # Write request sizes (log2)
system.mem_ctrls.writePktSize::2                    0                       # Write request sizes (log2)
[...]
system.mem_ctrls.dram.bw_write::.writebacks    703466632                       # Write bandwidth from this memory (bytes/s)
system.mem_ctrls.dram.bw_write::total       703466632                       # Write bandwidth from this memory (bytes/s)
system.mem_ctrls.dram.bw_total::.writebacks    703466632                       # Total bandwidth to/from this memory (bytes/s)
system.mem_ctrls.dram.bw_total::.cpu.inst       331447                       # Total bandwidth to/from this memory (bytes/s)
system.mem_ctrls.dram.bw_total::.cpu.data    736144363                       # Total bandwidth to/from this memory (bytes/s)
system.mem_ctrls.dram.bw_total::total      1439942443                       # Total bandwidth to/from this memory (bytes/s)
system.mem_ctrls.dram.readBursts              1488740                       # Number of DRAM read bursts
system.mem_ctrls.dram.writeBursts             1421990                       # Number of DRAM write bursts
system.mem_ctrls.dram.perBankRdBursts::0        93500                       # Per bank write bursts
system.mem_ctrls.dram.perBankRdBursts::1        92960                       # Per bank write bursts
system.mem_ctrls.dram.perBankRdBursts::2        93006                       # Per bank write bursts
system.mem_ctrls.dram.perBankRdBursts::3        92942                       # Per bank write bursts
system.mem_ctrls.dram.perBankRdBursts::4        93058                       # Per bank write bursts
system.mem_ctrls.dram.perBankRdBursts::5        93082                       # Per bank write bursts
system.mem_ctrls.dram.perBankRdBursts::6        93064                       # Per bank write bursts
system.mem_ctrls.dram.perBankRdBursts::7        93082                       # Per bank write bursts
system.mem_ctrls.dram.perBankRdBursts::8        93190                       # Per bank write bursts
system.mem_ctrls.dram.perBankRdBursts::9        92960                       # Per bank write bursts
system.mem_ctrls.dram.perBankRdBursts::10        92972                       # Per bank write bursts
system.mem_ctrls.dram.perBankRdBursts::11        92964                       # Per bank write bursts
system.mem_ctrls.dram.perBankRdBursts::12        93024                       # Per bank write bursts
system.mem_ctrls.dram.perBankRdBursts::13        92962                       # Per bank write bursts
system.mem_ctrls.dram.perBankRdBursts::14        92968                       # Per bank write bursts
system.mem_ctrls.dram.perBankRdBursts::15        93006                       # Per bank write bursts
system.mem_ctrls.dram.perBankWrBursts::0        88892                       # Per bank write bursts
system.mem_ctrls.dram.perBankWrBursts::1        88860                       # Per bank write bursts
system.mem_ctrls.dram.perBankWrBursts::2        88850                       # Per bank write bursts
system.mem_ctrls.dram.perBankWrBursts::3        88840                       # Per bank write bursts
system.mem_ctrls.dram.perBankWrBursts::4        88898                       # Per bank write bursts
system.mem_ctrls.dram.perBankWrBursts::5        88960                       # Per bank write bursts
system.mem_ctrls.dram.perBankWrBursts::6        88960                       # Per bank write bursts
system.mem_ctrls.dram.perBankWrBursts::7        88960                       # Per bank write bursts
system.mem_ctrls.dram.perBankWrBursts::8        88942                       # Per bank write bursts
system.mem_ctrls.dram.perBankWrBursts::9        88832                       # Per bank write bursts
system.mem_ctrls.dram.perBankWrBursts::10        88832                       # Per bank write bursts
system.mem_ctrls.dram.perBankWrBursts::11        88832                       # Per bank write bursts
system.mem_ctrls.dram.perBankWrBursts::12        88832                       # Per bank write bursts
system.mem_ctrls.dram.perBankWrBursts::13        88832                       # Per bank write bursts
system.mem_ctrls.dram.perBankWrBursts::14        88832                       # Per bank write bursts
system.mem_ctrls.dram.perBankWrBursts::15        88836                       # Per bank write bursts
system.mem_ctrls.dram.totQLat             31517791000                       # Total ticks spent queuing
system.mem_ctrls.dram.totBusLat            7443700000                       # Total ticks spent in databus transfers
system.mem_ctrls.dram.totMemAccLat        59431666000                       # Total ticks spent from burst creation until serviced by the DRAM
system.mem_ctrls.dram.avgQLat                21170.78                       # Average queueing delay per DRAM burst
system.mem_ctrls.dram.avgBusLat               5000.00                       # Average bus latency per DRAM burst
system.mem_ctrls.dram.avgMemAccLat           39920.78                       # Average memory access latency per DRAM burst
system.mem_ctrls.dram.readRowHits             1323728                       # Number of row buffer hits during reads
system.mem_ctrls.dram.writeRowHits            1263394                       # Number of row buffer hits during writes
system.mem_ctrls.dram.readRowHitRate            88.92                       # Row buffer hit rate for reads
system.mem_ctrls.dram.writeRowHitRate           88.85                       # Row buffer hit rate for writes
system.mem_ctrls.dram.bytesPerActivate::samples       323606                       # Bytes accessed per row activation
system.mem_ctrls.dram.bytesPerActivate::mean   575.656076                       # Bytes accessed per row activation
system.mem_ctrls.dram.bytesPerActivate::gmean   379.747205                       # Bytes accessed per row activation
system.mem_ctrls.dram.bytesPerActivate::stdev   423.070273                       # Bytes accessed per row activation
system.mem_ctrls.dram.bytesPerActivate::0-127         6268      1.94%      1.94% # Bytes accessed per row activation
system.mem_ctrls.dram.bytesPerActivate::128-255       130814     40.42%     42.36% # Bytes accessed per row activation
system.mem_ctrls.dram.bytesPerActivate::256-383        10877      3.36%     45.72% # Bytes accessed per row activation
system.mem_ctrls.dram.bytesPerActivate::384-511         7934      2.45%     48.17% # Bytes accessed per row activation
system.mem_ctrls.dram.bytesPerActivate::512-639         7552      2.33%     50.51% # Bytes accessed per row activation
system.mem_ctrls.dram.bytesPerActivate::640-767         7223      2.23%     52.74% # Bytes accessed per row activation
system.mem_ctrls.dram.bytesPerActivate::768-895         7396      2.29%     55.02% # Bytes accessed per row activation
system.mem_ctrls.dram.bytesPerActivate::896-1023         8661      2.68%     57.70% # Bytes accessed per row activation
system.mem_ctrls.dram.bytesPerActivate::1024-1151       136881     42.30%    100.00% # Bytes accessed per row activation
system.mem_ctrls.dram.bytesPerActivate::total       323606                       # Bytes accessed per row activation
system.mem_ctrls.dram.bytesRead              95279360                       # Total number of bytes read from DRAM
system.mem_ctrls.dram.bytesWritten           91007360                       # Total number of bytes written to DRAM
system.mem_ctrls.dram.avgRdBW              736.475811                       # Average DRAM read bandwidth in MiBytes/s
system.mem_ctrls.dram.avgWrBW              703.454759                       # Average DRAM write bandwidth in MiBytes/s
system.mem_ctrls.dram.peakBW                 12800.00                       # Theoretical peak bandwidth in MiByte/s
system.mem_ctrls.dram.busUtil                   11.25                       # Data bus utilization in percentage
system.mem_ctrls.dram.busUtilRead                5.75                       # Data bus utilization in percentage for reads
system.mem_ctrls.dram.busUtilWrite               5.50                       # Data bus utilization in percentage for writes
system.mem_ctrls.dram.pageHitRate               88.88                       # Row buffer hit rate, read and write combined
system.mem_ctrls.dram.power_state.pwrStateResidencyTicks::UNDEFINED 129372015500                       # Cumulative time (in ticks) in various power states
system.mem_ctrls.dram.rank0.actEnergy      1156694280                       # Energy for activate commands per rank (pJ)
system.mem_ctrls.dram.rank0.preEnergy       614797590                       # Energy for precharge commands per rank (pJ)
system.mem_ctrls.dram.rank0.readEnergy     5317115160                       # Energy for read commands per rank (pJ)
system.mem_ctrls.dram.rank0.writeEnergy    3712568400                       # Energy for write commands per rank (pJ)
system.mem_ctrls.dram.rank0.refreshEnergy 10212243600.000002                       # Energy for refresh commands per rank (pJ)
system.mem_ctrls.dram.rank0.actBackEnergy  30325745340                       # Energy for active background per rank (pJ)
system.mem_ctrls.dram.rank0.preBackEnergy  24141384480                       # Energy for precharge background per rank (pJ)
system.mem_ctrls.dram.rank0.actPowerDownEnergy            0                       # Energy for active power-down per rank (pJ)
system.mem_ctrls.dram.rank0.prePowerDownEnergy            0                       # Energy for precharge power-down per rank (pJ)
system.mem_ctrls.dram.rank0.selfRefreshEnergy            0                       # Energy for self refresh per rank (pJ)
system.mem_ctrls.dram.rank0.totalEnergy   75480548850                       # Total energy per rank (pJ)
system.mem_ctrls.dram.rank0.averagePower   583.437991                       # Core power per rank (mW)
system.mem_ctrls.dram.rank0.totalIdleTime            0                       # Total Idle time Per DRAM Rank
system.mem_ctrls.dram.rank0.pwrStateTime::IDLE  61379869500                       # Time in different power states
system.mem_ctrls.dram.rank0.pwrStateTime::REF   4319900000                       # Time in different power states
system.mem_ctrls.dram.rank0.pwrStateTime::SREF            0                       # Time in different power states
system.mem_ctrls.dram.rank0.pwrStateTime::PRE_PDN            0                       # Time in different power states
system.mem_ctrls.dram.rank0.pwrStateTime::ACT  63672246000                       # Time in different power states
system.mem_ctrls.dram.rank0.pwrStateTime::ACT_PDN            0                       # Time in different power states
system.mem_ctrls.dram.rank1.actEnergy      1153866840                       # Energy for activate commands per rank (pJ)
system.mem_ctrls.dram.rank1.preEnergy       613287180                       # Energy for precharge commands per rank (pJ)
system.mem_ctrls.dram.rank1.readEnergy     5312488440                       # Energy for read commands per rank (pJ)
system.mem_ctrls.dram.rank1.writeEnergy    3710188080                       # Energy for write commands per rank (pJ)
system.mem_ctrls.dram.rank1.refreshEnergy 10212243600.000002                       # Energy for refresh commands per rank (pJ)
system.mem_ctrls.dram.rank1.actBackEnergy  30053515620                       # Energy for active background per rank (pJ)
system.mem_ctrls.dram.rank1.preBackEnergy  24370630560                       # Energy for precharge background per rank (pJ)
system.mem_ctrls.dram.rank1.actPowerDownEnergy            0                       # Energy for active power-down per rank (pJ)
system.mem_ctrls.dram.rank1.prePowerDownEnergy            0                       # Energy for precharge power-down per rank (pJ)
system.mem_ctrls.dram.rank1.selfRefreshEnergy            0                       # Energy for self refresh per rank (pJ)
system.mem_ctrls.dram.rank1.totalEnergy   75426220320                       # Total energy per rank (pJ)
system.mem_ctrls.dram.rank1.averagePower   583.018051                       # Core power per rank (mW)
system.mem_ctrls.dram.rank1.totalIdleTime            0                       # Total Idle time Per DRAM Rank
system.mem_ctrls.dram.rank1.pwrStateTime::IDLE  61999358250                       # Time in different power states
system.mem_ctrls.dram.rank1.pwrStateTime::REF   4319900000                       # Time in different power states
system.mem_ctrls.dram.rank1.pwrStateTime::SREF            0                       # Time in different power states
system.mem_ctrls.dram.rank1.pwrStateTime::PRE_PDN            0                       # Time in different power states
system.mem_ctrls.dram.rank1.pwrStateTime::ACT  63052757250                       # Time in different power states
system.mem_ctrls.dram.rank1.pwrStateTime::ACT_PDN            0                       # Time in different power states
system.mem_ctrls.power_state.pwrStateResidencyTicks::UNDEFINED 129372015500                       # Cumulative time (in ticks) in various power states
system.membus.trans_dist::ReadResp                611                       # Transaction distribution
system.membus.trans_dist::WritebackDirty       711007                       # Transaction distribution
system.membus.trans_dist::CleanEvict              158                       # Transaction distribution
system.membus.trans_dist::ReadExReq            743759                       # Transaction distribution
system.membus.trans_dist::ReadExResp           743759                       # Transaction distribution
system.membus.trans_dist::ReadSharedReq           611                       # Transaction distribution
system.membus.pkt_count_system.l2.mem_side_port::system.mem_ctrls.port      2199905                       # Packet count per connected requestor and responder (bytes)
system.membus.pkt_count::total                2199905                       # Packet count per connected requestor and responder (bytes)
system.membus.pkt_size_system.l2.mem_side_port::system.mem_ctrls.port    186288256                       # Cumulative packet size per connected requestor and responder (bytes)
system.membus.pkt_size::total               186288256                       # Cumulative packet size per connected requestor and responder (bytes)
system.membus.snoops                                0                       # Total snoops (count)
system.membus.snoopTraffic                          0                       # Total snoop traffic (bytes)
system.membus.snoop_fanout::samples            744370                       # Request fanout histogram
system.membus.snoop_fanout::mean                    0                       # Request fanout histogram
system.membus.snoop_fanout::stdev                   0                       # Request fanout histogram
system.membus.snoop_fanout::underflows              0      0.00%      0.00% # Request fanout histogram
system.membus.snoop_fanout::0                  744370    100.00%    100.00% # Request fanout histogram
system.membus.snoop_fanout::1                       0      0.00%    100.00% # Request fanout histogram
system.membus.snoop_fanout::overflows               0      0.00%    100.00% # Request fanout histogram
system.membus.snoop_fanout::min_value               0                       # Request fanout histogram
system.membus.snoop_fanout::max_value               0                       # Request fanout histogram
system.membus.snoop_fanout::total              744370                       # Request fanout histogram
system.membus.power_state.pwrStateResidencyTicks::UNDEFINED 129372015500                       # Cumulative time (in ticks) in various power states
system.membus.reqLayer0.occupancy          7364636000                       # Layer occupancy (ticks)
system.membus.reqLayer0.utilization               5.7                       # Layer utilization (%)
system.membus.respLayer1.occupancy         6924396000                       # Layer occupancy (ticks)
system.membus.respLayer1.utilization              5.4                       # Layer utilization (%)
system.tol2bus.trans_dist::ReadResp             12171                       # Transaction distribution
system.tol2bus.trans_dist::WritebackDirty      1469735                       # Transaction distribution
system.tol2bus.trans_dist::WritebackClean          210                       # Transaction distribution
system.tol2bus.trans_dist::CleanEvict            7038                       # Transaction distribution
system.tol2bus.trans_dist::ReadExReq           753924                       # Transaction distribution
system.tol2bus.trans_dist::ReadExResp          753924                       # Transaction distribution
system.tol2bus.trans_dist::ReadCleanReq           450                       # Transaction distribution
system.tol2bus.trans_dist::ReadSharedReq        11721                       # Transaction distribution
system.tol2bus.pkt_count_system.cpu.icache.mem_side_port::system.l2.cpu_side_port         1110                       # Packet count per connected requestor and responder (bytes)
system.tol2bus.pkt_count_system.cpu.dcache.mem_side_port::system.l2.cpu_side_port      2295911                       # Packet count per connected requestor and responder (bytes)
system.tol2bus.pkt_count::total               2297021                       # Packet count per connected requestor and responder (bytes)
system.tol2bus.pkt_size_system.cpu.icache.mem_side_port::system.l2.cpu_side_port        84480                       # Cumulative packet size per connected requestor and responder (bytes)
system.tol2bus.pkt_size_system.cpu.dcache.mem_side_port::system.l2.cpu_side_port    195119744                       # Cumulative packet size per connected requestor and responder (bytes)
system.tol2bus.pkt_size::total              195204224                       # Cumulative packet size per connected requestor and responder (bytes)
system.tol2bus.snoops                          712152                       # Total snoops (count)
system.tol2bus.snoopTraffic                  91008896                       # Total snoop traffic (bytes)
system.tol2bus.snoop_fanout::samples          1478247                       # Request fanout histogram
system.tol2bus.snoop_fanout::mean            0.004763                       # Request fanout histogram
system.tol2bus.snoop_fanout::stdev           0.070769                       # Request fanout histogram
system.tol2bus.snoop_fanout::underflows             0      0.00%      0.00% # Request fanout histogram
system.tol2bus.snoop_fanout::0                1471404     99.54%     99.54% # Request fanout histogram
system.tol2bus.snoop_fanout::1                   6645      0.45%     99.99% # Request fanout histogram
system.tol2bus.snoop_fanout::2                    198      0.01%    100.00% # Request fanout histogram
system.tol2bus.snoop_fanout::overflows              0      0.00%    100.00% # Request fanout histogram
system.tol2bus.snoop_fanout::min_value              0                       # Request fanout histogram
system.tol2bus.snoop_fanout::max_value              2                       # Request fanout histogram
system.tol2bus.snoop_fanout::total            1478247                       # Request fanout histogram
system.tol2bus.power_state.pwrStateResidencyTicks::UNDEFINED 129372015500                       # Cumulative time (in ticks) in various power states
system.tol2bus.reqLayer0.occupancy         2283339000                       # Layer occupancy (ticks)
system.tol2bus.reqLayer0.utilization              1.8                       # Layer utilization (%)
system.tol2bus.respLayer0.occupancy           1125000                       # Layer occupancy (ticks)
system.tol2bus.respLayer0.utilization             0.0                       # Layer utilization (%)
system.tol2bus.respLayer1.occupancy        1914113997                       # Layer occupancy (ticks)
system.tol2bus.respLayer1.utilization             1.5                       # Layer utilization (%)
system.voltage_domain.voltage                       1                       # Voltage in Volts

---------- End Simulation Statistics   ----------
