
---------- Begin Simulation Statistics ----------
final_tick                               140133764000                       # Number of ticks from beginning of simulation (restored from checkpoints and never reset)
host_inst_rate                                 269384                       # Simulator instruction rate (inst/s)
host_mem_usage                                 668512                       # Number of bytes of host memory used
host_op_rate                                   314712                       # Simulator op (including micro ops) rate (op/s)
host_seconds                                   371.22                       # Real time elapsed on the host
host_tick_rate                              377497697                       # Simulator tick rate (ticks/s)
sim_freq                                 1000000000000                       # Frequency of simulated ticks
sim_insts                                   100000000                       # Number of instructions simulated
sim_ops                                     116826589                       # Number of ops (including micro ops) simulated
sim_seconds                                  0.140134                       # Number of seconds simulated
sim_ticks                                140133764000                       # Number of ticks simulated
system.cpu.committedInsts                   100000000                       # Number of instructions committed
system.cpu.committedOps                     116826589                       # Number of ops (including micro ops) committed
system.cpu.cpi                               1.401338                       # CPI: cycles per instruction
system.cpu.discardedOps                        503846                       # Number of ops (including micro ops) which were discarded before commit
system.cpu.idleCycles                         5037490                       # Total number of cycles that the object has spent stopped
system.cpu.ipc                               0.713604                       # IPC: instructions per cycle
system.cpu.numCycles                        140133764                       # number of cpu cycles simulated
system.cpu.numFetchSuspends                         0                       # Number of times Execute suspended instruction fetching
system.cpu.numWorkItemsCompleted                    0                       # number of work items this cpu completed
system.cpu.numWorkItemsStarted                      0                       # number of work items this cpu started
system.cpu.op_class_0::No_OpClass                   0      0.00%      0.00% # Class of committed instruction
system.cpu.op_class_0::IntAlu                65231428     55.84%     55.84% # Class of committed instruction
system.cpu.op_class_0::IntMult                 602374      0.52%     56.35% # Class of committed instruction
system.cpu.op_class_0::IntDiv                       0      0.00%     56.35% # Class of committed instruction
system.cpu.op_class_0::FloatAdd                     0      0.00%     56.35% # Class of committed instruction
system.cpu.op_class_0::FloatCmp                     0      0.00%     56.35% # Class of committed instruction
system.cpu.op_class_0::FloatCvt                     0      0.00%     56.35% # Class of committed instruction
system.cpu.op_class_0::FloatMult                    0      0.00%     56.35% # Class of committed instruction
system.cpu.op_class_0::FloatMultAcc                 0      0.00%     56.35% # Class of committed instruction
system.cpu.op_class_0::FloatDiv                     0      0.00%     56.35% # Class of committed instruction
system.cpu.op_class_0::FloatMisc                    0      0.00%     56.35% # Class of committed instruction
system.cpu.op_class_0::FloatSqrt                    0      0.00%     56.35% # Class of committed instruction
system.cpu.op_class_0::SimdAdd                    380      0.00%     56.35% # Class of committed instruction
system.cpu.op_class_0::SimdAddAcc                   0      0.00%     56.35% # Class of committed instruction
system.cpu.op_class_0::SimdAlu                    470      0.00%     56.35% # Class of committed instruction
system.cpu.op_class_0::SimdCmp                    382      0.00%     56.35% # Class of committed instruction
system.cpu.op_class_0::SimdCvt                      0      0.00%     56.35% # Class of committed instruction
system.cpu.op_class_0::SimdMisc                    53      0.00%     56.35% # Class of committed instruction
system.cpu.op_class_0::SimdMult                     0      0.00%     56.35% # Class of committed instruction
system.cpu.op_class_0::SimdMultAcc                  0      0.00%     56.35% # Class of committed instruction
system.cpu.op_class_0::SimdShift                    0      0.00%     56.35% # Class of committed instruction
system.cpu.op_class_0::SimdShiftAcc                 0      0.00%     56.35% # Class of committed instruction
system.cpu.op_class_0::SimdDiv                      0      0.00%     56.35% # Class of committed instruction
system.cpu.op_class_0::SimdSqrt                     0      0.00%     56.35% # Class of committed instruction
system.cpu.op_class_0::SimdFloatAdd            783705      0.67%     57.02% # Class of committed instruction
system.cpu.op_class_0::SimdFloatAlu                 0      0.00%     57.02% # Class of committed instruction
system.cpu.op_class_0::SimdFloatCmp            769156      0.66%     57.68% # Class of committed instruction
system.cpu.op_class_0::SimdFloatCvt            311548      0.27%     57.95% # Class of committed instruction
system.cpu.op_class_0::SimdFloatDiv            152211      0.13%     58.08% # Class of committed instruction
system.cpu.op_class_0::SimdFloatMisc           950762      0.81%     58.89% # Class of committed instruction
system.cpu.op_class_0::SimdFloatMult            86008      0.07%     58.97% # Class of committed instruction
system.cpu.op_class_0::SimdFloatMultAcc         12802      0.01%     58.98% # Class of committed instruction
system.cpu.op_class_0::SimdFloatSqrt                0      0.00%     58.98% # Class of committed instruction
system.cpu.op_class_0::SimdReduceAdd                0      0.00%     58.98% # Class of committed instruction
system.cpu.op_class_0::SimdReduceAlu                0      0.00%     58.98% # Class of committed instruction
system.cpu.op_class_0::SimdReduceCmp                0      0.00%     58.98% # Class of committed instruction
system.cpu.op_class_0::SimdFloatReduceAdd            0      0.00%     58.98% # Class of committed instruction
system.cpu.op_class_0::SimdFloatReduceCmp            0      0.00%     58.98% # Class of committed instruction
system.cpu.op_class_0::SimdAes                      0      0.00%     58.98% # Class of committed instruction
system.cpu.op_class_0::SimdAesMix                   0      0.00%     58.98% # Class of committed instruction
system.cpu.op_class_0::SimdSha1Hash                 0      0.00%     58.98% # Class of committed instruction
system.cpu.op_class_0::SimdSha1Hash2                0      0.00%     58.98% # Class of committed instruction
system.cpu.op_class_0::SimdSha256Hash               0      0.00%     58.98% # Class of committed instruction
system.cpu.op_class_0::SimdSha256Hash2              0      0.00%     58.98% # Class of committed instruction
system.cpu.op_class_0::SimdShaSigma2                0      0.00%     58.98% # Class of committed instruction
system.cpu.op_class_0::SimdShaSigma3                0      0.00%     58.98% # Class of committed instruction
system.cpu.op_class_0::SimdPredAlu                  0      0.00%     58.98% # Class of committed instruction
system.cpu.op_class_0::MemRead               30319953     25.95%     84.93% # Class of committed instruction
system.cpu.op_class_0::MemWrite              17605357     15.07%    100.00% # Class of committed instruction
system.cpu.op_class_0::FloatMemRead                 0      0.00%    100.00% # Class of committed instruction
system.cpu.op_class_0::FloatMemWrite                0      0.00%    100.00% # Class of committed instruction
system.cpu.op_class_0::IprAccess                    0      0.00%    100.00% # Class of committed instruction
system.cpu.op_class_0::InstPrefetch                 0      0.00%    100.00% # Class of committed instruction
system.cpu.op_class_0::total                116826589                       # Class of committed instruction
system.cpu.tickCycles                       135096274                       # Number of cycles that the object actually ticked
system.cpu.workload.numSyscalls                    33                       # Number of system calls
system.membus.snoop_filter.hit_multi_requests            0                       # Number of requests hitting in the snoop filter with multiple (>1) holders of the requested data.
system.membus.snoop_filter.hit_multi_snoops            0                       # Number of snoops hitting in the snoop filter with multiple (>1) holders of the requested data.
system.membus.snoop_filter.hit_single_requests            0                       # Number of requests hitting in the snoop filter with a single holder of the requested data.
system.membus.snoop_filter.hit_single_snoops            0                       # Number of snoops hitting in the snoop filter with a single holder of the requested data.
system.membus.snoop_filter.tot_requests          5645                       # Total number of requests made to the snoop filter.
system.membus.snoop_filter.tot_snoops               0                       # Total number of snoops made to the snoop filter.
system.tol2bus.snoop_filter.hit_multi_requests         1764                       # Number of requests hitting in the snoop filter with multiple (>1) holders of the requested data.
system.tol2bus.snoop_filter.hit_multi_snoops            0                       # Number of snoops hitting in the snoop filter with multiple (>1) holders of the requested data.
system.tol2bus.snoop_filter.hit_single_requests       175376                       # Number of requests hitting in the snoop filter with a single holder of the requested data.
system.tol2bus.snoop_filter.hit_single_snoops            0                       # Number of snoops hitting in the snoop filter with a single holder of the requested data.
system.tol2bus.snoop_filter.tot_requests       352233                       # Total number of requests made to the snoop filter.
system.tol2bus.snoop_filter.tot_snoops              0                       # Total number of snoops made to the snoop filter.
system.clk_domain.clock                          1000                       # Clock period in ticks
system.cpu.branchPred.lookups                 6104894                       # Number of BP lookups
system.cpu.branchPred.condPredicted           5266393                       # Number of conditional branches predicted
system.cpu.branchPred.condIncorrect            188560                       # Number of conditional branches incorrect
system.cpu.branchPred.BTBLookups              3813470                       # Number of BTB lookups
system.cpu.branchPred.BTBHits                 3808574                       # Number of BTB hits
system.cpu.branchPred.BTBHitPct             99.871613                       # BTB Hit Percentage
system.cpu.branchPred.RASUsed                  257421                       # Number of times the RAS was used to get a target.
system.cpu.branchPred.RASIncorrect                  3                       # Number of incorrect RAS predictions.
system.cpu.branchPred.indirectLookups          154324                       # Number of indirect predictor lookups.
system.cpu.branchPred.indirectHits                233                       # Number of indirect target hits.
system.cpu.branchPred.indirectMisses           154091                       # Number of indirect misses.
system.cpu.branchPred.indirectMispredicted          201                       # Number of mispredicted indirect branches.
system.cpu.dcache.demand_hits::.cpu.data     47486346                       # number of demand (read+write) hits
system.cpu.dcache.demand_hits::total         47486346                       # number of demand (read+write) hits
system.cpu.dcache.overall_hits::.cpu.data     47511308                       # number of overall hits
system.cpu.dcache.overall_hits::total        47511308                       # number of overall hits
system.cpu.dcache.demand_misses::.cpu.data       296022                       # number of demand (read+write) misses
system.cpu.dcache.demand_misses::total         296022                       # number of demand (read+write) misses
system.cpu.dcache.overall_misses::.cpu.data       296281                       # number of overall misses
system.cpu.dcache.overall_misses::total        296281                       # number of overall misses
system.cpu.dcache.demand_miss_latency::.cpu.data   6916834000                       # number of demand (read+write) miss cycles
system.cpu.dcache.demand_miss_latency::total   6916834000                       # number of demand (read+write) miss cycles
system.cpu.dcache.overall_miss_latency::.cpu.data   6916834000                       # number of overall miss cycles
system.cpu.dcache.overall_miss_latency::total   6916834000                       # number of overall miss cycles
system.cpu.dcache.demand_accesses::.cpu.data     47782368                       # number of demand (read+write) accesses
system.cpu.dcache.demand_accesses::total     47782368                       # number of demand (read+write) accesses
system.cpu.dcache.overall_accesses::.cpu.data     47807589                       # number of overall (read+write) accesses
system.cpu.dcache.overall_accesses::total     47807589                       # number of overall (read+write) accesses
system.cpu.dcache.demand_miss_rate::.cpu.data     0.006195                       # miss rate for demand accesses
system.cpu.dcache.demand_miss_rate::total     0.006195                       # miss rate for demand accesses
system.cpu.dcache.overall_miss_rate::.cpu.data     0.006197                       # miss rate for overall accesses
system.cpu.dcache.overall_miss_rate::total     0.006197                       # miss rate for overall accesses
system.cpu.dcache.demand_avg_miss_latency::.cpu.data 23365.945774                       # average overall miss latency
system.cpu.dcache.demand_avg_miss_latency::total 23365.945774                       # average overall miss latency
system.cpu.dcache.overall_avg_miss_latency::.cpu.data 23345.519962                       # average overall miss latency
system.cpu.dcache.overall_avg_miss_latency::total 23345.519962                       # average overall miss latency
system.cpu.dcache.blocked_cycles::no_mshrs           62                       # number of cycles access was blocked
system.cpu.dcache.blocked_cycles::no_targets            0                       # number of cycles access was blocked
system.cpu.dcache.blocked::no_mshrs                 1                       # number of cycles access was blocked
system.cpu.dcache.blocked::no_targets               0                       # number of cycles access was blocked
system.cpu.dcache.avg_blocked_cycles::no_mshrs           62                       # average number of cycles each access was blocked
system.cpu.dcache.avg_blocked_cycles::no_targets          nan                       # average number of cycles each access was blocked
system.cpu.dcache.writebacks::.writebacks       169473                       # number of writebacks
system.cpu.dcache.writebacks::total            169473                       # number of writebacks
system.cpu.dcache.demand_mshr_hits::.cpu.data       122036                       # number of demand (read+write) MSHR hits
system.cpu.dcache.demand_mshr_hits::total       122036                       # number of demand (read+write) MSHR hits
system.cpu.dcache.overall_mshr_hits::.cpu.data       122036                       # number of overall MSHR hits
system.cpu.dcache.overall_mshr_hits::total       122036                       # number of overall MSHR hits
system.cpu.dcache.demand_mshr_misses::.cpu.data       173986                       # number of demand (read+write) MSHR misses
system.cpu.dcache.demand_mshr_misses::total       173986                       # number of demand (read+write) MSHR misses
system.cpu.dcache.overall_mshr_misses::.cpu.data       174237                       # number of overall MSHR misses
system.cpu.dcache.overall_mshr_misses::total       174237                       # number of overall MSHR misses
system.cpu.dcache.demand_mshr_miss_latency::.cpu.data   4545062000                       # number of demand (read+write) MSHR miss cycles
system.cpu.dcache.demand_mshr_miss_latency::total   4545062000                       # number of demand (read+write) MSHR miss cycles
system.cpu.dcache.overall_mshr_miss_latency::.cpu.data   4558053000                       # number of overall MSHR miss cycles
system.cpu.dcache.overall_mshr_miss_latency::total   4558053000                       # number of overall MSHR miss cycles
system.cpu.dcache.demand_mshr_miss_rate::.cpu.data     0.003641                       # mshr miss rate for demand accesses
system.cpu.dcache.demand_mshr_miss_rate::total     0.003641                       # mshr miss rate for demand accesses
system.cpu.dcache.overall_mshr_miss_rate::.cpu.data     0.003645                       # mshr miss rate for overall accesses
system.cpu.dcache.overall_mshr_miss_rate::total     0.003645                       # mshr miss rate for overall accesses
system.cpu.dcache.demand_avg_mshr_miss_latency::.cpu.data 26123.147839                       # average overall mshr miss latency
system.cpu.dcache.demand_avg_mshr_miss_latency::total 26123.147839                       # average overall mshr miss latency
system.cpu.dcache.overall_avg_mshr_miss_latency::.cpu.data 26160.075070                       # average overall mshr miss latency
system.cpu.dcache.overall_avg_mshr_miss_latency::total 26160.075070                       # average overall mshr miss latency
system.cpu.dcache.replacements                 173213                       # number of replacements
system.cpu.dcache.ReadReq_hits::.cpu.data     30272475                       # number of ReadReq hits
system.cpu.dcache.ReadReq_hits::total        30272475                       # number of ReadReq hits
system.cpu.dcache.ReadReq_misses::.cpu.data        35665                       # number of ReadReq misses
system.cpu.dcache.ReadReq_misses::total         35665                       # number of ReadReq misses
system.cpu.dcache.ReadReq_miss_latency::.cpu.data   1026916000                       # number of ReadReq miss cycles
system.cpu.dcache.ReadReq_miss_latency::total   1026916000                       # number of ReadReq miss cycles
system.cpu.dcache.ReadReq_accesses::.cpu.data     30308140                       # number of ReadReq accesses(hits+misses)
system.cpu.dcache.ReadReq_accesses::total     30308140                       # number of ReadReq accesses(hits+misses)
system.cpu.dcache.ReadReq_miss_rate::.cpu.data     0.001177                       # miss rate for ReadReq accesses
system.cpu.dcache.ReadReq_miss_rate::total     0.001177                       # miss rate for ReadReq accesses
system.cpu.dcache.ReadReq_avg_miss_latency::.cpu.data 28793.382868                       # average ReadReq miss latency
system.cpu.dcache.ReadReq_avg_miss_latency::total 28793.382868                       # average ReadReq miss latency
system.cpu.dcache.ReadReq_mshr_hits::.cpu.data         1188                       # number of ReadReq MSHR hits
system.cpu.dcache.ReadReq_mshr_hits::total         1188                       # number of ReadReq MSHR hits
system.cpu.dcache.ReadReq_mshr_misses::.cpu.data        34477                       # number of ReadReq MSHR misses
system.cpu.dcache.ReadReq_mshr_misses::total        34477                       # number of ReadReq MSHR misses
system.cpu.dcache.ReadReq_mshr_miss_latency::.cpu.data    919248000                       # number of ReadReq MSHR miss cycles
system.cpu.dcache.ReadReq_mshr_miss_latency::total    919248000                       # number of ReadReq MSHR miss cycles
system.cpu.dcache.ReadReq_mshr_miss_rate::.cpu.data     0.001138                       # mshr miss rate for ReadReq accesses
system.cpu.dcache.ReadReq_mshr_miss_rate::total     0.001138                       # mshr miss rate for ReadReq accesses
system.cpu.dcache.ReadReq_avg_mshr_miss_latency::.cpu.data 26662.644662                       # average ReadReq mshr miss latency
system.cpu.dcache.ReadReq_avg_mshr_miss_latency::total 26662.644662                       # average ReadReq mshr miss latency
system.cpu.dcache.WriteReq_hits::.cpu.data     17213871                       # number of WriteReq hits
system.cpu.dcache.WriteReq_hits::total       17213871                       # number of WriteReq hits
system.cpu.dcache.WriteReq_misses::.cpu.data       260357                       # number of WriteReq misses
system.cpu.dcache.WriteReq_misses::total       260357                       # number of WriteReq misses
system.cpu.dcache.WriteReq_miss_latency::.cpu.data   5889918000                       # number of WriteReq miss cycles
system.cpu.dcache.WriteReq_miss_latency::total   5889918000                       # number of WriteReq miss cycles
system.cpu.dcache.WriteReq_accesses::.cpu.data     17474228                       # number of WriteReq accesses(hits+misses)
system.cpu.dcache.WriteReq_accesses::total     17474228                       # number of WriteReq accesses(hits+misses)
system.cpu.dcache.WriteReq_miss_rate::.cpu.data     0.014899                       # miss rate for WriteReq accesses
system.cpu.dcache.WriteReq_miss_rate::total     0.014899                       # miss rate for WriteReq accesses
system.cpu.dcache.WriteReq_avg_miss_latency::.cpu.data 22622.468380                       # average WriteReq miss latency
system.cpu.dcache.WriteReq_avg_miss_latency::total 22622.468380                       # average WriteReq miss latency
system.cpu.dcache.WriteReq_mshr_hits::.cpu.data       120848                       # number of WriteReq MSHR hits
system.cpu.dcache.WriteReq_mshr_hits::total       120848                       # number of WriteReq MSHR hits
system.cpu.dcache.WriteReq_mshr_misses::.cpu.data       139509                       # number of WriteReq MSHR misses
system.cpu.dcache.WriteReq_mshr_misses::total       139509                       # number of WriteReq MSHR misses
system.cpu.dcache.WriteReq_mshr_miss_latency::.cpu.data   3625814000                       # number of WriteReq MSHR miss cycles
system.cpu.dcache.WriteReq_mshr_miss_latency::total   3625814000                       # number of WriteReq MSHR miss cycles
system.cpu.dcache.WriteReq_mshr_miss_rate::.cpu.data     0.007984                       # mshr miss rate for WriteReq accesses
system.cpu.dcache.WriteReq_mshr_miss_rate::total     0.007984                       # mshr miss rate for WriteReq accesses
system.cpu.dcache.WriteReq_avg_mshr_miss_latency::.cpu.data 25989.821445                       # average WriteReq mshr miss latency
system.cpu.dcache.WriteReq_avg_mshr_miss_latency::total 25989.821445                       # average WriteReq mshr miss latency
system.cpu.dcache.SoftPFReq_hits::.cpu.data        24962                       # number of SoftPFReq hits
system.cpu.dcache.SoftPFReq_hits::total         24962                       # number of SoftPFReq hits
system.cpu.dcache.SoftPFReq_misses::.cpu.data          259                       # number of SoftPFReq misses
system.cpu.dcache.SoftPFReq_misses::total          259                       # number of SoftPFReq misses
system.cpu.dcache.SoftPFReq_accesses::.cpu.data        25221                       # number of SoftPFReq accesses(hits+misses)
system.cpu.dcache.SoftPFReq_accesses::total        25221                       # number of SoftPFReq accesses(hits+misses)
system.cpu.dcache.SoftPFReq_miss_rate::.cpu.data     0.010269                       # miss rate for SoftPFReq accesses
system.cpu.dcache.SoftPFReq_miss_rate::total     0.010269                       # miss rate for SoftPFReq accesses
system.cpu.dcache.SoftPFReq_mshr_misses::.cpu.data          251                       # number of SoftPFReq MSHR misses
system.cpu.dcache.SoftPFReq_mshr_misses::total          251                       # number of SoftPFReq MSHR misses
system.cpu.dcache.SoftPFReq_mshr_miss_latency::.cpu.data     12991000                       # number of SoftPFReq MSHR miss cycles
system.cpu.dcache.SoftPFReq_mshr_miss_latency::total     12991000                       # number of SoftPFReq MSHR miss cycles
system.cpu.dcache.SoftPFReq_mshr_miss_rate::.cpu.data     0.009952                       # mshr miss rate for SoftPFReq accesses
system.cpu.dcache.SoftPFReq_mshr_miss_rate::total     0.009952                       # mshr miss rate for SoftPFReq accesses
system.cpu.dcache.SoftPFReq_avg_mshr_miss_latency::.cpu.data 51756.972112                       # average SoftPFReq mshr miss latency
system.cpu.dcache.SoftPFReq_avg_mshr_miss_latency::total 51756.972112                       # average SoftPFReq mshr miss latency
system.cpu.dcache.LoadLockedReq_hits::.cpu.data          166                       # number of LoadLockedReq hits
system.cpu.dcache.LoadLockedReq_hits::total          166                       # number of LoadLockedReq hits
system.cpu.dcache.LoadLockedReq_accesses::.cpu.data          166                       # number of LoadLockedReq accesses(hits+misses)
system.cpu.dcache.LoadLockedReq_accesses::total          166                       # number of LoadLockedReq accesses(hits+misses)
system.cpu.dcache.StoreCondReq_hits::.cpu.data          166                       # number of StoreCondReq hits
system.cpu.dcache.StoreCondReq_hits::total          166                       # number of StoreCondReq hits
system.cpu.dcache.StoreCondReq_accesses::.cpu.data          166                       # number of StoreCondReq accesses(hits+misses)
system.cpu.dcache.StoreCondReq_accesses::total          166                       # number of StoreCondReq accesses(hits+misses)
system.cpu.dcache.power_state.pwrStateResidencyTicks::UNDEFINED 140133764000                       # Cumulative time (in ticks) in various power states
system.cpu.dcache.tags.tagsinuse          1018.904831                       # Cycle average of tags in use
system.cpu.dcache.tags.total_refs            47685877                       # Total number of references to valid blocks.
system.cpu.dcache.tags.sampled_refs            174237                       # Sample count of references to valid blocks.
system.cpu.dcache.tags.avg_refs            273.683988                       # Average number of references to valid blocks.
system.cpu.dcache.tags.warmup_cycle            223000                       # Cycle when the warmup percentage was hit.
system.cpu.dcache.tags.occ_blocks::.cpu.data  1018.904831                       # Average occupied blocks per requestor
system.cpu.dcache.tags.occ_percent::.cpu.data     0.995024                       # Average percentage of cache occupancy
system.cpu.dcache.tags.occ_percent::total     0.995024                       # Average percentage of cache occupancy
system.cpu.dcache.tags.occ_task_id_blocks::1024         1024                       # Occupied blocks per task id
system.cpu.dcache.tags.age_task_id_blocks_1024::0            9                       # Occupied blocks per task id
system.cpu.dcache.tags.age_task_id_blocks_1024::1           61                       # Occupied blocks per task id
system.cpu.dcache.tags.age_task_id_blocks_1024::2          409                       # Occupied blocks per task id
system.cpu.dcache.tags.age_task_id_blocks_1024::3          530                       # Occupied blocks per task id
system.cpu.dcache.tags.age_task_id_blocks_1024::4           15                       # Occupied blocks per task id
system.cpu.dcache.tags.occ_task_id_percent::1024            1                       # Percentage of cache occupancy per task id
system.cpu.dcache.tags.tag_accesses          95790079                       # Number of tag accesses
system.cpu.dcache.tags.data_accesses         95790079                       # Number of data accesses
system.cpu.dcache.tags.power_state.pwrStateResidencyTicks::UNDEFINED 140133764000                       # Cumulative time (in ticks) in various power states
system.cpu.dtb.instHits                             0                       # ITB inst hits
system.cpu.dtb.instMisses                           0                       # ITB inst misses
system.cpu.dtb.readHits                             0                       # DTB read hits
system.cpu.dtb.readMisses                           0                       # DTB read misses
system.cpu.dtb.writeHits                            0                       # DTB write hits
system.cpu.dtb.writeMisses                          0                       # DTB write misses
system.cpu.dtb.inserts                              0                       # Number of times an entry is inserted into the TLB
system.cpu.dtb.flushTlb                             0                       # Number of times complete TLB was flushed
system.cpu.dtb.flushTlbMva                          0                       # Number of times TLB was flushed by MVA
system.cpu.dtb.flushTlbMvaAsid                      0                       # Number of times TLB was flushed by MVA & ASID
system.cpu.dtb.flushTlbAsid                         0                       # Number of times TLB was flushed by ASID
system.cpu.dtb.flushedEntries                       0                       # Number of entries that have been flushed from TLB
system.cpu.dtb.alignFaults                          0                       # Number of TLB faults due to alignment restrictions
system.cpu.dtb.prefetchFaults                       0                       # Number of TLB faults due to prefetch
system.cpu.dtb.domainFaults                         0                       # Number of TLB faults due to domain restrictions
system.cpu.dtb.permsFaults                          0                       # Number of TLB faults due to permissions restrictions
system.cpu.dtb.readAccesses                         0                       # DTB read accesses
system.cpu.dtb.writeAccesses                        0                       # DTB write accesses
system.cpu.dtb.instAccesses                         0                       # ITB inst accesses
system.cpu.dtb.hits                                 0                       # Total TLB (inst and data) hits
system.cpu.dtb.misses                               0                       # Total TLB (inst and data) misses
system.cpu.dtb.accesses                             0                       # Total TLB (inst and data) accesses
system.cpu.dtb.stage2_mmu.stage2_tlb.instHits            0                       # ITB inst hits
system.cpu.dtb.stage2_mmu.stage2_tlb.instMisses            0                       # ITB inst misses
system.cpu.dtb.stage2_mmu.stage2_tlb.readHits            0                       # DTB read hits
system.cpu.dtb.stage2_mmu.stage2_tlb.readMisses            0                       # DTB read misses
system.cpu.dtb.stage2_mmu.stage2_tlb.writeHits            0                       # DTB write hits
system.cpu.dtb.stage2_mmu.stage2_tlb.writeMisses            0                       # DTB write misses
system.cpu.dtb.stage2_mmu.stage2_tlb.inserts            0                       # Number of times an entry is inserted into the TLB
system.cpu.dtb.stage2_mmu.stage2_tlb.flushTlb            0                       # Number of times complete TLB was flushed
system.cpu.dtb.stage2_mmu.stage2_tlb.flushTlbMva            0                       # Number of times TLB was flushed by MVA
system.cpu.dtb.stage2_mmu.stage2_tlb.flushTlbMvaAsid            0                       # Number of times TLB was flushed by MVA & ASID
system.cpu.dtb.stage2_mmu.stage2_tlb.flushTlbAsid            0                       # Number of times TLB was flushed by ASID
system.cpu.dtb.stage2_mmu.stage2_tlb.flushedEntries            0                       # Number of entries that have been flushed from TLB
system.cpu.dtb.stage2_mmu.stage2_tlb.alignFaults            0                       # Number of TLB faults due to alignment restrictions
system.cpu.dtb.stage2_mmu.stage2_tlb.prefetchFaults            0                       # Number of TLB faults due to prefetch
system.cpu.dtb.stage2_mmu.stage2_tlb.domainFaults            0                       # Number of TLB faults due to domain restrictions
system.cpu.dtb.stage2_mmu.stage2_tlb.permsFaults            0                       # Number of TLB faults due to permissions restrictions
system.cpu.dtb.stage2_mmu.stage2_tlb.readAccesses            0                       # DTB read accesses
system.cpu.dtb.stage2_mmu.stage2_tlb.writeAccesses            0                       # DTB write accesses
system.cpu.dtb.stage2_mmu.stage2_tlb.instAccesses            0                       # ITB inst accesses
system.cpu.dtb.stage2_mmu.stage2_tlb.hits            0                       # Total TLB (inst and data) hits
system.cpu.dtb.stage2_mmu.stage2_tlb.misses            0                       # Total TLB (inst and data) misses
system.cpu.dtb.stage2_mmu.stage2_tlb.accesses            0                       # Total TLB (inst and data) accesses
system.cpu.dtb.stage2_mmu.stage2_tlb.walker.walks            0                       # Table walker walks requested
system.cpu.dtb.stage2_mmu.stage2_tlb.walker.requestOrigin_Requested::Data            0                       # Table walker requests started/completed, data/inst
system.cpu.dtb.stage2_mmu.stage2_tlb.walker.requestOrigin_Requested::Inst            0                       # Table walker requests started/completed, data/inst
system.cpu.dtb.stage2_mmu.stage2_tlb.walker.requestOrigin_Requested::total            0                       # Table walker requests started/completed, data/inst
system.cpu.dtb.stage2_mmu.stage2_tlb.walker.requestOrigin_Completed::Data            0                       # Table walker requests started/completed, data/inst
system.cpu.dtb.stage2_mmu.stage2_tlb.walker.requestOrigin_Completed::Inst            0                       # Table walker requests started/completed, data/inst
system.cpu.dtb.stage2_mmu.stage2_tlb.walker.requestOrigin_Completed::total            0                       # Table walker requests started/completed, data/inst
system.cpu.dtb.stage2_mmu.stage2_tlb.walker.requestOrigin::total            0                       # Table walker requests started/completed, data/inst
system.cpu.dtb.stage2_mmu.stage2_tlb.walker.power_state.pwrStateResidencyTicks::UNDEFINED 140133764000                       # Cumulative time (in ticks) in various power states
system.cpu.dtb.walker.walks                         0                       # Table walker walks requested
system.cpu.dtb.walker.requestOrigin_Requested::Data            0                       # Table walker requests started/completed, data/inst
system.cpu.dtb.walker.requestOrigin_Requested::Inst            0                       # Table walker requests started/completed, data/inst
system.cpu.dtb.walker.requestOrigin_Requested::total            0                       # Table walker requests started/completed, data/inst
system.cpu.dtb.walker.requestOrigin_Completed::Data            0                       # Table walker requests started/completed, data/inst
system.cpu.dtb.walker.requestOrigin_Completed::Inst            0                       # Table walker requests started/completed, data/inst
system.cpu.dtb.walker.requestOrigin_Completed::total            0                       # Table walker requests started/completed, data/inst
system.cpu.dtb.walker.requestOrigin::total            0                       # Table walker requests started/completed, data/inst
system.cpu.dtb.walker.power_state.pwrStateResidencyTicks::UNDEFINED 140133764000                       # Cumulative time (in ticks) in various power states
system.cpu.fetch2.intInstructions            37763400                       # Number of integer instructions successfully decoded
system.cpu.fetch2.fpInstructions                    0                       # Number of floating point instructions successfully decoded
system.cpu.fetch2.vecInstructions                   0                       # Number of SIMD instructions successfully decoded
system.cpu.fetch2.loadInstructions           17245312                       # Number of memory load instructions successfully decoded
system.cpu.fetch2.storeInstructions          14150785                       # Number of memory store instructions successfully decoded
system.cpu.fetch2.amoInstructions                   0                       # Number of memory atomic instructions successfully decoded
system.cpu.icache.demand_hits::.cpu.inst     15472387                       # number of demand (read+write) hits
system.cpu.icache.demand_hits::total         15472387                       # number of demand (read+write) hits
system.cpu.icache.overall_hits::.cpu.inst     15472387                       # number of overall hits
system.cpu.icache.overall_hits::total        15472387                       # number of overall hits
system.cpu.icache.demand_misses::.cpu.inst         2628                       # number of demand (read+write) misses
system.cpu.icache.demand_misses::total           2628                       # number of demand (read+write) misses
system.cpu.icache.overall_misses::.cpu.inst         2628                       # number of overall misses
system.cpu.icache.overall_misses::total          2628                       # number of overall misses
system.cpu.icache.demand_miss_latency::.cpu.inst    158013000                       # number of demand (read+write) miss cycles
system.cpu.icache.demand_miss_latency::total    158013000                       # number of demand (read+write) miss cycles
system.cpu.icache.overall_miss_latency::.cpu.inst    158013000                       # number of overall miss cycles
system.cpu.icache.overall_miss_latency::total    158013000                       # number of overall miss cycles
system.cpu.icache.demand_accesses::.cpu.inst     15475015                       # number of demand (read+write) accesses
system.cpu.icache.demand_accesses::total     15475015                       # number of demand (read+write) accesses
system.cpu.icache.overall_accesses::.cpu.inst     15475015                       # number of overall (read+write) accesses
system.cpu.icache.overall_accesses::total     15475015                       # number of overall (read+write) accesses
system.cpu.icache.demand_miss_rate::.cpu.inst     0.000170                       # miss rate for demand accesses
system.cpu.icache.demand_miss_rate::total     0.000170                       # miss rate for demand accesses
system.cpu.icache.overall_miss_rate::.cpu.inst     0.000170                       # miss rate for overall accesses
system.cpu.icache.overall_miss_rate::total     0.000170                       # miss rate for overall accesses
system.cpu.icache.demand_avg_miss_latency::.cpu.inst 60126.712329                       # average overall miss latency
system.cpu.icache.demand_avg_miss_latency::total 60126.712329                       # average overall miss latency
system.cpu.icache.overall_avg_miss_latency::.cpu.inst 60126.712329                       # average overall miss latency
system.cpu.icache.overall_avg_miss_latency::total 60126.712329                       # average overall miss latency
system.cpu.icache.blocked_cycles::no_mshrs            0                       # number of cycles access was blocked
system.cpu.icache.blocked_cycles::no_targets            0                       # number of cycles access was blocked
system.cpu.icache.blocked::no_mshrs                 0                       # number of cycles access was blocked
system.cpu.icache.blocked::no_targets               0                       # number of cycles access was blocked
system.cpu.icache.avg_blocked_cycles::no_mshrs          nan                       # average number of cycles each access was blocked
system.cpu.icache.avg_blocked_cycles::no_targets          nan                       # average number of cycles each access was blocked
system.cpu.icache.writebacks::.writebacks         2155                       # number of writebacks
system.cpu.icache.writebacks::total              2155                       # number of writebacks
system.cpu.icache.demand_mshr_misses::.cpu.inst         2628                       # number of demand (read+write) MSHR misses
system.cpu.icache.demand_mshr_misses::total         2628                       # number of demand (read+write) MSHR misses
system.cpu.icache.overall_mshr_misses::.cpu.inst         2628                       # number of overall MSHR misses
system.cpu.icache.overall_mshr_misses::total         2628                       # number of overall MSHR misses
system.cpu.icache.demand_mshr_miss_latency::.cpu.inst    152757000                       # number of demand (read+write) MSHR miss cycles
system.cpu.icache.demand_mshr_miss_latency::total    152757000                       # number of demand (read+write) MSHR miss cycles
system.cpu.icache.overall_mshr_miss_latency::.cpu.inst    152757000                       # number of overall MSHR miss cycles
system.cpu.icache.overall_mshr_miss_latency::total    152757000                       # number of overall MSHR miss cycles
system.cpu.icache.demand_mshr_miss_rate::.cpu.inst     0.000170                       # mshr miss rate for demand accesses
system.cpu.icache.demand_mshr_miss_rate::total     0.000170                       # mshr miss rate for demand accesses
system.cpu.icache.overall_mshr_miss_rate::.cpu.inst     0.000170                       # mshr miss rate for overall accesses
system.cpu.icache.overall_mshr_miss_rate::total     0.000170                       # mshr miss rate for overall accesses
system.cpu.icache.demand_avg_mshr_miss_latency::.cpu.inst 58126.712329                       # average overall mshr miss latency
system.cpu.icache.demand_avg_mshr_miss_latency::total 58126.712329                       # average overall mshr miss latency
system.cpu.icache.overall_avg_mshr_miss_latency::.cpu.inst 58126.712329                       # average overall mshr miss latency
system.cpu.icache.overall_avg_mshr_miss_latency::total 58126.712329                       # average overall mshr miss latency
system.cpu.icache.replacements                   2155                       # number of replacements
system.cpu.icache.ReadReq_hits::.cpu.inst     15472387                       # number of ReadReq hits
system.cpu.icache.ReadReq_hits::total        15472387                       # number of ReadReq hits
system.cpu.icache.ReadReq_misses::.cpu.inst         2628                       # number of ReadReq misses
system.cpu.icache.ReadReq_misses::total          2628                       # number of ReadReq misses
system.cpu.icache.ReadReq_miss_latency::.cpu.inst    158013000                       # number of ReadReq miss cycles
system.cpu.icache.ReadReq_miss_latency::total    158013000                       # number of ReadReq miss cycles
system.cpu.icache.ReadReq_accesses::.cpu.inst     15475015                       # number of ReadReq accesses(hits+misses)
system.cpu.icache.ReadReq_accesses::total     15475015                       # number of ReadReq accesses(hits+misses)
system.cpu.icache.ReadReq_miss_rate::.cpu.inst     0.000170                       # miss rate for ReadReq accesses
system.cpu.icache.ReadReq_miss_rate::total     0.000170                       # miss rate for ReadReq accesses
system.cpu.icache.ReadReq_avg_miss_latency::.cpu.inst 60126.712329                       # average ReadReq miss latency
system.cpu.icache.ReadReq_avg_miss_latency::total 60126.712329                       # average ReadReq miss latency
system.cpu.icache.ReadReq_mshr_misses::.cpu.inst         2628                       # number of ReadReq MSHR misses
system.cpu.icache.ReadReq_mshr_misses::total         2628                       # number of ReadReq MSHR misses
system.cpu.icache.ReadReq_mshr_miss_latency::.cpu.inst    152757000                       # number of ReadReq MSHR miss cycles
system.cpu.icache.ReadReq_mshr_miss_latency::total    152757000                       # number of ReadReq MSHR miss cycles
system.cpu.icache.ReadReq_mshr_miss_rate::.cpu.inst     0.000170                       # mshr miss rate for ReadReq accesses
system.cpu.icache.ReadReq_mshr_miss_rate::total     0.000170                       # mshr miss rate for ReadReq accesses
system.cpu.icache.ReadReq_avg_mshr_miss_latency::.cpu.inst 58126.712329                       # average ReadReq mshr miss latency
system.cpu.icache.ReadReq_avg_mshr_miss_latency::total 58126.712329                       # average ReadReq mshr miss latency
system.cpu.icache.power_state.pwrStateResidencyTicks::UNDEFINED 140133764000                       # Cumulative time (in ticks) in various power states
system.cpu.icache.tags.tagsinuse           472.757022                       # Cycle average of tags in use
system.cpu.icache.tags.total_refs            15475015                       # Total number of references to valid blocks.
system.cpu.icache.tags.sampled_refs              2628                       # Sample count of references to valid blocks.
system.cpu.icache.tags.avg_refs           5888.514079                       # Average number of references to valid blocks.
system.cpu.icache.tags.warmup_cycle            108000                       # Cycle when the warmup percentage was hit.
system.cpu.icache.tags.occ_blocks::.cpu.inst   472.757022                       # Average occupied blocks per requestor
system.cpu.icache.tags.occ_percent::.cpu.inst     0.923354                       # Average percentage of cache occupancy
system.cpu.icache.tags.occ_percent::total     0.923354                       # Average percentage of cache occupancy
system.cpu.icache.tags.occ_task_id_blocks::1024          473                       # Occupied blocks per task id
system.cpu.icache.tags.age_task_id_blocks_1024::3           12                       # Occupied blocks per task id
system.cpu.icache.tags.age_task_id_blocks_1024::4          461                       # Occupied blocks per task id
system.cpu.icache.tags.occ_task_id_percent::1024     0.923828                       # Percentage of cache occupancy per task id
system.cpu.icache.tags.tag_accesses          30952658                       # Number of tag accesses
system.cpu.icache.tags.data_accesses         30952658                       # Number of data accesses
system.cpu.icache.tags.power_state.pwrStateResidencyTicks::UNDEFINED 140133764000                       # Cumulative time (in ticks) in various power states
system.cpu.itb.instHits                             0                       # ITB inst hits
system.cpu.itb.instMisses                           0                       # ITB inst misses
system.cpu.itb.readHits                             0                       # DTB read hits
system.cpu.itb.readMisses                           0                       # DTB read misses
system.cpu.itb.writeHits                            0                       # DTB write hits
system.cpu.itb.writeMisses                          0                       # DTB write misses
system.cpu.itb.inserts                              0                       # Number of times an entry is inserted into the TLB
system.cpu.itb.flushTlb                             0                       # Number of times complete TLB was flushed
system.cpu.itb.flushTlbMva                          0                       # Number of times TLB was flushed by MVA
system.cpu.itb.flushTlbMvaAsid                      0                       # Number of times TLB was flushed by MVA & ASID
system.cpu.itb.flushTlbAsid                         0                       # Number of times TLB was flushed by ASID
system.cpu.itb.flushedEntries                       0                       # Number of entries that have been flushed from TLB
system.cpu.itb.alignFaults                          0                       # Number of TLB faults due to alignment restrictions
system.cpu.itb.prefetchFaults                       0                       # Number of TLB faults due to prefetch
system.cpu.itb.domainFaults                         0                       # Number of TLB faults due to domain restrictions
system.cpu.itb.permsFaults                          0                       # Number of TLB faults due to permissions restrictions
system.cpu.itb.readAccesses                         0                       # DTB read accesses
system.cpu.itb.writeAccesses                        0                       # DTB write accesses
system.cpu.itb.instAccesses                         0                       # ITB inst accesses
system.cpu.itb.hits                                 0                       # Total TLB (inst and data) hits
system.cpu.itb.misses                               0                       # Total TLB (inst and data) misses
system.cpu.itb.accesses                             0                       # Total TLB (inst and data) accesses
system.cpu.itb.stage2_mmu.stage2_tlb.instHits            0                       # ITB inst hits
system.cpu.itb.stage2_mmu.stage2_tlb.instMisses            0                       # ITB inst misses
system.cpu.itb.stage2_mmu.stage2_tlb.readHits            0                       # DTB read hits
system.cpu.itb.stage2_mmu.stage2_tlb.readMisses            0                       # DTB read misses
system.cpu.itb.stage2_mmu.stage2_tlb.writeHits            0                       # DTB write hits
system.cpu.itb.stage2_mmu.stage2_tlb.writeMisses            0                       # DTB write misses
system.cpu.itb.stage2_mmu.stage2_tlb.inserts            0                       # Number of times an entry is inserted into the TLB
system.cpu.itb.stage2_mmu.stage2_tlb.flushTlb            0                       # Number of times complete TLB was flushed
system.cpu.itb.stage2_mmu.stage2_tlb.flushTlbMva            0                       # Number of times TLB was flushed by MVA
system.cpu.itb.stage2_mmu.stage2_tlb.flushTlbMvaAsid            0                       # Number of times TLB was flushed by MVA & ASID
system.cpu.itb.stage2_mmu.stage2_tlb.flushTlbAsid            0                       # Number of times TLB was flushed by ASID
system.cpu.itb.stage2_mmu.stage2_tlb.flushedEntries            0                       # Number of entries that have been flushed from TLB
system.cpu.itb.stage2_mmu.stage2_tlb.alignFaults            0                       # Number of TLB faults due to alignment restrictions
system.cpu.itb.stage2_mmu.stage2_tlb.prefetchFaults            0                       # Number of TLB faults due to prefetch
system.cpu.itb.stage2_mmu.stage2_tlb.domainFaults            0                       # Number of TLB faults due to domain restrictions
system.cpu.itb.stage2_mmu.stage2_tlb.permsFaults            0                       # Number of TLB faults due to permissions restrictions
system.cpu.itb.stage2_mmu.stage2_tlb.readAccesses            0                       # DTB read accesses
system.cpu.itb.stage2_mmu.stage2_tlb.writeAccesses            0                       # DTB write accesses
system.cpu.itb.stage2_mmu.stage2_tlb.instAccesses            0                       # ITB inst accesses
system.cpu.itb.stage2_mmu.stage2_tlb.hits            0                       # Total TLB (inst and data) hits
system.cpu.itb.stage2_mmu.stage2_tlb.misses            0                       # Total TLB (inst and data) misses
system.cpu.itb.stage2_mmu.stage2_tlb.accesses            0                       # Total TLB (inst and data) accesses
system.cpu.itb.stage2_mmu.stage2_tlb.walker.walks            0                       # Table walker walks requested
system.cpu.itb.stage2_mmu.stage2_tlb.walker.requestOrigin_Requested::Data            0                       # Table walker requests started/completed, data/inst
system.cpu.itb.stage2_mmu.stage2_tlb.walker.requestOrigin_Requested::Inst            0                       # Table walker requests started/completed, data/inst
system.cpu.itb.stage2_mmu.stage2_tlb.walker.requestOrigin_Requested::total            0                       # Table walker requests started/completed, data/inst
system.cpu.itb.stage2_mmu.stage2_tlb.walker.requestOrigin_Completed::Data            0                       # Table walker requests started/completed, data/inst
system.cpu.itb.stage2_mmu.stage2_tlb.walker.requestOrigin_Completed::Inst            0                       # Table walker requests started/completed, data/inst
system.cpu.itb.stage2_mmu.stage2_tlb.walker.requestOrigin_Completed::total            0                       # Table walker requests started/completed, data/inst
system.cpu.itb.stage2_mmu.stage2_tlb.walker.requestOrigin::total            0                       # Table walker requests started/completed, data/inst
system.cpu.itb.stage2_mmu.stage2_tlb.walker.power_state.pwrStateResidencyTicks::UNDEFINED 140133764000                       # Cumulative time (in ticks) in various power states
system.cpu.itb.walker.walks                         0                       # Table walker walks requested
system.cpu.itb.walker.requestOrigin_Requested::Data            0                       # Table walker requests started/completed, data/inst
system.cpu.itb.walker.requestOrigin_Requested::Inst            0                       # Table walker requests started/completed, data/inst
system.cpu.itb.walker.requestOrigin_Requested::total            0                       # Table walker requests started/completed, data/inst
system.cpu.itb.walker.requestOrigin_Completed::Data            0                       # Table walker requests started/completed, data/inst
system.cpu.itb.walker.requestOrigin_Completed::Inst            0                       # Table walker requests started/completed, data/inst
system.cpu.itb.walker.requestOrigin_Completed::total            0                       # Table walker requests started/completed, data/inst
system.cpu.itb.walker.requestOrigin::total            0                       # Table walker requests started/completed, data/inst
system.cpu.itb.walker.power_state.pwrStateResidencyTicks::UNDEFINED 140133764000                       # Cumulative time (in ticks) in various power states
system.cpu.power_state.pwrStateResidencyTicks::ON 140133764000                       # Cumulative time (in ticks) in various power states
system.cpu.thread17522.numInsts             100000000                       # Number of Instructions committed
system.cpu.thread17522.numOps               116826589                       # Number of Ops committed
system.cpu.thread17522.numMemRefs                   0                       # Number of Memory References
system.cpu_clk_domain.clock                      1000                       # Clock period in ticks
system.cpu_voltage_domain.voltage                   1                       # Voltage in Volts
system.l2.demand_hits::.cpu.inst                 1453                       # number of demand (read+write) hits
system.l2.demand_hits::.cpu.data               169760                       # number of demand (read+write) hits
system.l2.demand_hits::total                   171213                       # number of demand (read+write) hits
system.l2.overall_hits::.cpu.inst                1453                       # number of overall hits
system.l2.overall_hits::.cpu.data              169760                       # number of overall hits
system.l2.overall_hits::total                  171213                       # number of overall hits
system.l2.demand_misses::.cpu.inst               1175                       # number of demand (read+write) misses
system.l2.demand_misses::.cpu.data               4477                       # number of demand (read+write) misses
system.l2.demand_misses::total                   5652                       # number of demand (read+write) misses
system.l2.overall_misses::.cpu.inst              1175                       # number of overall misses
system.l2.overall_misses::.cpu.data              4477                       # number of overall misses
system.l2.overall_misses::total                  5652                       # number of overall misses
system.l2.demand_miss_latency::.cpu.inst    114039000                       # number of demand (read+write) miss cycles
system.l2.demand_miss_latency::.cpu.data    435346000                       # number of demand (read+write) miss cycles
system.l2.demand_miss_latency::total        549385000                       # number of demand (read+write) miss cycles
system.l2.overall_miss_latency::.cpu.inst    114039000                       # number of overall miss cycles
system.l2.overall_miss_latency::.cpu.data    435346000                       # number of overall miss cycles
system.l2.overall_miss_latency::total       549385000                       # number of overall miss cycles
system.l2.demand_accesses::.cpu.inst             2628                       # number of demand (read+write) accesses
system.l2.demand_accesses::.cpu.data           174237                       # number of demand (read+write) accesses
system.l2.demand_accesses::total               176865                       # number of demand (read+write) accesses
system.l2.overall_accesses::.cpu.inst            2628                       # number of overall (read+write) accesses
system.l2.overall_accesses::.cpu.data          174237                       # number of overall (read+write) accesses
system.l2.overall_accesses::total              176865                       # number of overall (read+write) accesses
system.l2.demand_miss_rate::.cpu.inst        0.447108                       # miss rate for demand accesses
system.l2.demand_miss_rate::.cpu.data        0.025695                       # miss rate for demand accesses
system.l2.demand_miss_rate::total            0.031957                       # miss rate for demand accesses
system.l2.overall_miss_rate::.cpu.inst       0.447108                       # miss rate for overall accesses
system.l2.overall_miss_rate::.cpu.data       0.025695                       # miss rate for overall accesses
system.l2.overall_miss_rate::total           0.031957                       # miss rate for overall accesses
system.l2.demand_avg_miss_latency::.cpu.inst 97054.468085                       # average overall miss latency
system.l2.demand_avg_miss_latency::.cpu.data 97240.562877                       # average overall miss latency
system.l2.demand_avg_miss_latency::total 97201.875442                       # average overall miss latency
system.l2.overall_avg_miss_latency::.cpu.inst 97054.468085                       # average overall miss latency
system.l2.overall_avg_miss_latency::.cpu.data 97240.562877                       # average overall miss latency
system.l2.overall_avg_miss_latency::total 97201.875442                       # average overall miss latency
system.l2.blocked_cycles::no_mshrs                  0                       # number of cycles access was blocked
system.l2.blocked_cycles::no_targets                0                       # number of cycles access was blocked
system.l2.blocked::no_mshrs                         0                       # number of cycles access was blocked
system.l2.blocked::no_targets                       0                       # number of cycles access was blocked
system.l2.avg_blocked_cycles::no_mshrs            nan                       # average number of cycles each access was blocked
system.l2.avg_blocked_cycles::no_targets          nan                       # average number of cycles each access was blocked
system.l2.demand_mshr_hits::.cpu.inst               2                       # number of demand (read+write) MSHR hits
system.l2.demand_mshr_hits::.cpu.data               5                       # number of demand (read+write) MSHR hits
system.l2.demand_mshr_hits::total                   7                       # number of demand (read+write) MSHR hits
system.l2.overall_mshr_hits::.cpu.inst              2                       # number of overall MSHR hits
system.l2.overall_mshr_hits::.cpu.data              5                       # number of overall MSHR hits
system.l2.overall_mshr_hits::total                  7                       # number of overall MSHR hits
system.l2.demand_mshr_misses::.cpu.inst          1173                       # number of demand (read+write) MSHR misses
system.l2.demand_mshr_misses::.cpu.data          4472                       # number of demand (read+write) MSHR misses
system.l2.demand_mshr_misses::total              5645                       # number of demand (read+write) MSHR misses
system.l2.overall_mshr_misses::.cpu.inst         1173                       # number of overall MSHR misses
system.l2.overall_mshr_misses::.cpu.data         4472                       # number of overall MSHR misses
system.l2.overall_mshr_misses::total             5645                       # number of overall MSHR misses
system.l2.demand_mshr_miss_latency::.cpu.inst     90478000                       # number of demand (read+write) MSHR miss cycles
system.l2.demand_mshr_miss_latency::.cpu.data    345487000                       # number of demand (read+write) MSHR miss cycles
system.l2.demand_mshr_miss_latency::total    435965000                       # number of demand (read+write) MSHR miss cycles
system.l2.overall_mshr_miss_latency::.cpu.inst     90478000                       # number of overall MSHR miss cycles
system.l2.overall_mshr_miss_latency::.cpu.data    345487000                       # number of overall MSHR miss cycles
system.l2.overall_mshr_miss_latency::total    435965000                       # number of overall MSHR miss cycles
system.l2.demand_mshr_miss_rate::.cpu.inst     0.446347                       # mshr miss rate for demand accesses
system.l2.demand_mshr_miss_rate::.cpu.data     0.025666                       # mshr miss rate for demand accesses
system.l2.demand_mshr_miss_rate::total       0.031917                       # mshr miss rate for demand accesses
system.l2.overall_mshr_miss_rate::.cpu.inst     0.446347                       # mshr miss rate for overall accesses
system.l2.overall_mshr_miss_rate::.cpu.data     0.025666                       # mshr miss rate for overall accesses
system.l2.overall_mshr_miss_rate::total      0.031917                       # mshr miss rate for overall accesses
system.l2.demand_avg_mshr_miss_latency::.cpu.inst 77133.844842                       # average overall mshr miss latency
system.l2.demand_avg_mshr_miss_latency::.cpu.data 77255.590340                       # average overall mshr miss latency
system.l2.demand_avg_mshr_miss_latency::total 77230.292294                       # average overall mshr miss latency
system.l2.overall_avg_mshr_miss_latency::.cpu.inst 77133.844842                       # average overall mshr miss latency
system.l2.overall_avg_mshr_miss_latency::.cpu.data 77255.590340                       # average overall mshr miss latency
system.l2.overall_avg_mshr_miss_latency::total 77230.292294                       # average overall mshr miss latency
system.l2.replacements                              0                       # number of replacements
system.l2.WritebackDirty_hits::.writebacks       169473                       # number of WritebackDirty hits
system.l2.WritebackDirty_hits::total           169473                       # number of WritebackDirty hits
system.l2.WritebackDirty_accesses::.writebacks       169473                       # number of WritebackDirty accesses(hits+misses)
system.l2.WritebackDirty_accesses::total       169473                       # number of WritebackDirty accesses(hits+misses)
system.l2.WritebackClean_hits::.writebacks         2093                       # number of WritebackClean hits
system.l2.WritebackClean_hits::total             2093                       # number of WritebackClean hits
system.l2.WritebackClean_accesses::.writebacks         2093                       # number of WritebackClean accesses(hits+misses)
system.l2.WritebackClean_accesses::total         2093                       # number of WritebackClean accesses(hits+misses)
system.l2.ReadExReq_hits::.cpu.data            135962                       # number of ReadExReq hits
system.l2.ReadExReq_hits::total                135962                       # number of ReadExReq hits
system.l2.ReadExReq_misses::.cpu.data            3682                       # number of ReadExReq misses
system.l2.ReadExReq_misses::total                3682                       # number of ReadExReq misses
system.l2.ReadExReq_miss_latency::.cpu.data    354427000                       # number of ReadExReq miss cycles
system.l2.ReadExReq_miss_latency::total     354427000                       # number of ReadExReq miss cycles
system.l2.ReadExReq_accesses::.cpu.data        139644                       # number of ReadExReq accesses(hits+misses)
system.l2.ReadExReq_accesses::total            139644                       # number of ReadExReq accesses(hits+misses)
system.l2.ReadExReq_miss_rate::.cpu.data     0.026367                       # miss rate for ReadExReq accesses
system.l2.ReadExReq_miss_rate::total         0.026367                       # miss rate for ReadExReq accesses
system.l2.ReadExReq_avg_miss_latency::.cpu.data 96259.369908                       # average ReadExReq miss latency
system.l2.ReadExReq_avg_miss_latency::total 96259.369908                       # average ReadExReq miss latency
system.l2.ReadExReq_mshr_misses::.cpu.data         3682                       # number of ReadExReq MSHR misses
system.l2.ReadExReq_mshr_misses::total           3682                       # number of ReadExReq MSHR misses
system.l2.ReadExReq_mshr_miss_latency::.cpu.data    280787000                       # number of ReadExReq MSHR miss cycles
system.l2.ReadExReq_mshr_miss_latency::total    280787000                       # number of ReadExReq MSHR miss cycles
system.l2.ReadExReq_mshr_miss_rate::.cpu.data     0.026367                       # mshr miss rate for ReadExReq accesses
system.l2.ReadExReq_mshr_miss_rate::total     0.026367                       # mshr miss rate for ReadExReq accesses
system.l2.ReadExReq_avg_mshr_miss_latency::.cpu.data 76259.369908                       # average ReadExReq mshr miss latency
system.l2.ReadExReq_avg_mshr_miss_latency::total 76259.369908                       # average ReadExReq mshr miss latency
system.l2.ReadCleanReq_hits::.cpu.inst           1453                       # number of ReadCleanReq hits
system.l2.ReadCleanReq_hits::total               1453                       # number of ReadCleanReq hits
system.l2.ReadCleanReq_misses::.cpu.inst         1175                       # number of ReadCleanReq misses
system.l2.ReadCleanReq_misses::total             1175                       # number of ReadCleanReq misses
system.l2.ReadCleanReq_miss_latency::.cpu.inst    114039000                       # number of ReadCleanReq miss cycles
system.l2.ReadCleanReq_miss_latency::total    114039000                       # number of ReadCleanReq miss cycles
system.l2.ReadCleanReq_accesses::.cpu.inst         2628                       # number of ReadCleanReq accesses(hits+misses)
system.l2.ReadCleanReq_accesses::total           2628                       # number of ReadCleanReq accesses(hits+misses)
system.l2.ReadCleanReq_miss_rate::.cpu.inst     0.447108                       # miss rate for ReadCleanReq accesses
system.l2.ReadCleanReq_miss_rate::total      0.447108                       # miss rate for ReadCleanReq accesses
system.l2.ReadCleanReq_avg_miss_latency::.cpu.inst 97054.468085                       # average ReadCleanReq miss latency
system.l2.ReadCleanReq_avg_miss_latency::total 97054.468085                       # average ReadCleanReq miss latency
system.l2.ReadCleanReq_mshr_hits::.cpu.inst            2                       # number of ReadCleanReq MSHR hits
system.l2.ReadCleanReq_mshr_hits::total             2                       # number of ReadCleanReq MSHR hits
system.l2.ReadCleanReq_mshr_misses::.cpu.inst         1173                       # number of ReadCleanReq MSHR misses
system.l2.ReadCleanReq_mshr_misses::total         1173                       # number of ReadCleanReq MSHR misses
system.l2.ReadCleanReq_mshr_miss_latency::.cpu.inst     90478000                       # number of ReadCleanReq MSHR miss cycles
system.l2.ReadCleanReq_mshr_miss_latency::total     90478000                       # number of ReadCleanReq MSHR miss cycles
system.l2.ReadCleanReq_mshr_miss_rate::.cpu.inst     0.446347                       # mshr miss rate for ReadCleanReq accesses
system.l2.ReadCleanReq_mshr_miss_rate::total     0.446347                       # mshr miss rate for ReadCleanReq accesses
system.l2.ReadCleanReq_avg_mshr_miss_latency::.cpu.inst 77133.844842                       # average ReadCleanReq mshr miss latency
system.l2.ReadCleanReq_avg_mshr_miss_latency::total 77133.844842                       # average ReadCleanReq mshr miss latency
system.l2.ReadSharedReq_hits::.cpu.data         33798                       # number of ReadSharedReq hits
system.l2.ReadSharedReq_hits::total             33798                       # number of ReadSharedReq hits
system.l2.ReadSharedReq_misses::.cpu.data          795                       # number of ReadSharedReq misses
system.l2.ReadSharedReq_misses::total             795                       # number of ReadSharedReq misses
system.l2.ReadSharedReq_miss_latency::.cpu.data     80919000                       # number of ReadSharedReq miss cycles
system.l2.ReadSharedReq_miss_latency::total     80919000                       # number of ReadSharedReq miss cycles
system.l2.ReadSharedReq_accesses::.cpu.data        34593                       # number of ReadSharedReq accesses(hits+misses)
system.l2.ReadSharedReq_accesses::total         34593                       # number of ReadSharedReq accesses(hits+misses)
system.l2.ReadSharedReq_miss_rate::.cpu.data     0.022982                       # miss rate for ReadSharedReq accesses
system.l2.ReadSharedReq_miss_rate::total     0.022982                       # miss rate for ReadSharedReq accesses
system.l2.ReadSharedReq_avg_miss_latency::.cpu.data 101784.905660                       # average ReadSharedReq miss latency
system.l2.ReadSharedReq_avg_miss_latency::total 101784.905660                       # average ReadSharedReq miss latency
system.l2.ReadSharedReq_mshr_hits::.cpu.data            5                       # number of ReadSharedReq MSHR hits
system.l2.ReadSharedReq_mshr_hits::total            5                       # number of ReadSharedReq MSHR hits
system.l2.ReadSharedReq_mshr_misses::.cpu.data          790                       # number of ReadSharedReq MSHR misses
system.l2.ReadSharedReq_mshr_misses::total          790                       # number of ReadSharedReq MSHR misses
system.l2.ReadSharedReq_mshr_miss_latency::.cpu.data     64700000                       # number of ReadSharedReq MSHR miss cycles
system.l2.ReadSharedReq_mshr_miss_latency::total     64700000                       # number of ReadSharedReq MSHR miss cycles
system.l2.ReadSharedReq_mshr_miss_rate::.cpu.data     0.022837                       # mshr miss rate for ReadSharedReq accesses
system.l2.ReadSharedReq_mshr_miss_rate::total     0.022837                       # mshr miss rate for ReadSharedReq accesses
system.l2.ReadSharedReq_avg_mshr_miss_latency::.cpu.data 81898.734177                       # average ReadSharedReq mshr miss latency
system.l2.ReadSharedReq_avg_mshr_miss_latency::total 81898.734177                       # average ReadSharedReq mshr miss latency
system.l2.power_state.pwrStateResidencyTicks::UNDEFINED 140133764000                       # Cumulative time (in ticks) in various power states
system.l2.tags.tagsinuse                  5548.729802                       # Cycle average of tags in use
system.l2.tags.total_refs                      350462                       # Total number of references to valid blocks.
system.l2.tags.sampled_refs                      5645                       # Sample count of references to valid blocks.
system.l2.tags.avg_refs                     62.083614                       # Average number of references to valid blocks.
system.l2.tags.warmup_cycle                     87000                       # Cycle when the warmup percentage was hit.
system.l2.tags.occ_blocks::.cpu.inst      1169.960636                       # Average occupied blocks per requestor
system.l2.tags.occ_blocks::.cpu.data      4378.769166                       # Average occupied blocks per requestor
system.l2.tags.occ_percent::.cpu.inst        0.035704                       # Average percentage of cache occupancy
system.l2.tags.occ_percent::.cpu.data        0.133629                       # Average percentage of cache occupancy
system.l2.tags.occ_percent::total            0.169334                       # Average percentage of cache occupancy
system.l2.tags.occ_task_id_blocks::1024          5645                       # Occupied blocks per task id
system.l2.tags.age_task_id_blocks_1024::4         5645                       # Occupied blocks per task id
system.l2.tags.occ_task_id_percent::1024     0.172272                       # Percentage of cache occupancy per task id
system.l2.tags.tag_accesses                   2809397                       # Number of tag accesses
system.l2.tags.data_accesses                  2809397                       # Number of data accesses
system.l2.tags.power_state.pwrStateResidencyTicks::UNDEFINED 140133764000                       # Cumulative time (in ticks) in various power states
system.mem_ctrls.avgPriority_.cpu.inst::samples      1173.00                       # Average QoS priority value for accepted requests
system.mem_ctrls.avgPriority_.cpu.data::samples      4472.00                       # Average QoS priority value for accepted requests
system.mem_ctrls.priorityMinLatency      0.000000018750                       # per QoS priority minimum request to response latency (s)
system.mem_ctrls.priorityMaxLatency      0.000000567500                       # per QoS priority maximum request to response latency (s)
system.mem_ctrls.numReadWriteTurnArounds            0                       # Number of turnarounds from READ to WRITE
system.mem_ctrls.numWriteReadTurnArounds            0                       # Number of turnarounds from WRITE to READ
system.mem_ctrls.numStayReadState               47273                       # Number of times bus staying in READ state
system.mem_ctrls.numStayWriteState                  0                       # Number of times bus staying in WRITE state
system.mem_ctrls.readReqs                        5645                       # Number of read requests accepted
system.mem_ctrls.writeReqs                          0                       # Number of write requests accepted
system.mem_ctrls.readBursts                      5645                       # Number of controller read bursts, including those serviced by the write queue
system.mem_ctrls.writeBursts                        0                       # Number of controller write bursts, including those merged in the write queue
system.mem_ctrls.servicedByWrQ                      0                       # Number of controller read bursts serviced by the write queue
system.mem_ctrls.mergedWrBursts                     0                       # Number of controller write bursts merged with an existing one
system.mem_ctrls.neitherReadNorWriteReqs            0                       # Number of requests that are neither read nor write
system.mem_ctrls.avgRdQLen                       1.00                       # Average read queue length when enqueuing
system.mem_ctrls.avgWrQLen                       0.00                       # Average write queue length when enqueuing
system.mem_ctrls.numRdRetry                         0                       # Number of times read queue was full causing retry
system.mem_ctrls.numWrRetry                         0                       # Number of times write queue was full causing retry
system.mem_ctrls.readPktSize::0                     0                       # Read request sizes (log2)
system.mem_ctrls.readPktSize::1                     0                       # Read request sizes (log2)
system.mem_ctrls.readPktSize::2                     0                       # Read request sizes (log2)
system.mem_ctrls.readPktSize::3                     0                       # Read request sizes (log2)
system.mem_ctrls.readPktSize::4                     0                       # Read request sizes (log2)
system.mem_ctrls.readPktSize::5                     0                       # Read request sizes (log2)
system.mem_ctrls.readPktSize::6                  5645                       # Read request sizes (log2)
system.mem_ctrls.writePktSize::0                    0                       # Write request sizes (log2)
system.mem_ctrls.writePktSize::1                    0                       # Write request sizes (log2)
system.mem_ctrls.writePktSize::2                    0                       # Write request sizes (log2)
system.mem_ctrls.writePktSize::3                    0                       # Write request sizes (log2)
system.mem_ctrls.writePktSize::4                    0                       # Write request sizes (log2)
system.mem_ctrls.writePktSize::5                    0                       # Write request sizes (log2)
system.mem_ctrls.writePktSize::6                    0                       # Write request sizes (log2)
system.mem_ctrls.rdQLenPdf::0                    5234                       # What read queue length does an incoming req see
system.mem_ctrls.rdQLenPdf::1                     390                       # What read queue length does an incoming req see
system.mem_ctrls.rdQLenPdf::2                      21                       # What read queue length does an incoming req see
system.mem_ctrls.rdQLenPdf::3                       0                       # What read queue length does an incoming req see
system.mem_ctrls.rdQLenPdf::4                       0                       # What read queue length does an incoming req see
system.mem_ctrls.rdQLenPdf::5                       0                       # What read queue length does an incoming req see
system.mem_ctrls.rdQLenPdf::6                       0                       # What read queue length does an incoming req see
system.mem_ctrls.rdQLenPdf::7                       0                       # What read queue length does an incoming req see
system.mem_ctrls.rdQLenPdf::8                       0                       # What read queue length does an incoming req see
system.mem_ctrls.rdQLenPdf::9                       0                       # What read queue length does an incoming req see
system.mem_ctrls.rdQLenPdf::10                      0                       # What read queue length does an incoming req see
system.mem_ctrls.rdQLenPdf::11                      0                       # What read queue length does an incoming req see
system.mem_ctrls.rdQLenPdf::12                      0                       # What read queue length does an incoming req see
system.mem_ctrls.rdQLenPdf::13                      0                       # What read queue length does an incoming req see
system.mem_ctrls.rdQLenPdf::14                      0                       # What read queue length does an incoming req see
[...]
system.mem_ctrls.dram.bw_read::.cpu.data      2042391                       # Total read bandwidth from this memory (bytes/s)
system.mem_ctrls.dram.bw_read::total          2578108                       # Total read bandwidth from this memory (bytes/s)
system.mem_ctrls.dram.bw_inst_read::.cpu.inst       535717                       # Instruction read bandwidth from this memory (bytes/s)
system.mem_ctrls.dram.bw_inst_read::total       535717                       # Instruction read bandwidth from this memory (bytes/s)
system.mem_ctrls.dram.bw_total::.cpu.inst       535717                       # Total bandwidth to/from this memory (bytes/s)
system.mem_ctrls.dram.bw_total::.cpu.data      2042391                       # Total bandwidth to/from this memory (bytes/s)
system.mem_ctrls.dram.bw_total::total         2578108                       # Total bandwidth to/from this memory (bytes/s)
system.mem_ctrls.dram.readBursts                 5645                       # Number of DRAM read bursts
system.mem_ctrls.dram.writeBursts                   0                       # Number of DRAM write bursts
system.mem_ctrls.dram.perBankRdBursts::0          420                       # Per bank write bursts
system.mem_ctrls.dram.perBankRdBursts::1          398                       # Per bank write bursts
system.mem_ctrls.dram.perBankRdBursts::2          361                       # Per bank write bursts
system.mem_ctrls.dram.perBankRdBursts::3          335                       # Per bank write bursts
system.mem_ctrls.dram.perBankRdBursts::4          352                       # Per bank write bursts
system.mem_ctrls.dram.perBankRdBursts::5          301                       # Per bank write bursts
system.mem_ctrls.dram.perBankRdBursts::6          376                       # Per bank write bursts
system.mem_ctrls.dram.perBankRdBursts::7          370                       # Per bank write bursts
system.mem_ctrls.dram.perBankRdBursts::8          224                       # Per bank write bursts
system.mem_ctrls.dram.perBankRdBursts::9          330                       # Per bank write bursts
system.mem_ctrls.dram.perBankRdBursts::10          293                       # Per bank write bursts
system.mem_ctrls.dram.perBankRdBursts::11          347                       # Per bank write bursts
system.mem_ctrls.dram.perBankRdBursts::12          372                       # Per bank write bursts
system.mem_ctrls.dram.perBankRdBursts::13          409                       # Per bank write bursts
system.mem_ctrls.dram.perBankRdBursts::14          422                       # Per bank write bursts
system.mem_ctrls.dram.perBankRdBursts::15          335                       # Per bank write bursts
system.mem_ctrls.dram.perBankWrBursts::0            0                       # Per bank write bursts
system.mem_ctrls.dram.perBankWrBursts::1            0                       # Per bank write bursts
system.mem_ctrls.dram.perBankWrBursts::2            0                       # Per bank write bursts
system.mem_ctrls.dram.perBankWrBursts::3            0                       # Per bank write bursts
system.mem_ctrls.dram.perBankWrBursts::4            0                       # Per bank write bursts
system.mem_ctrls.dram.perBankWrBursts::5            0                       # Per bank write bursts
system.mem_ctrls.dram.perBankWrBursts::6            0                       # Per bank write bursts
system.mem_ctrls.dram.perBankWrBursts::7            0                       # Per bank write bursts
system.mem_ctrls.dram.perBankWrBursts::8            0                       # Per bank write bursts
system.mem_ctrls.dram.perBankWrBursts::9            0                       # Per bank write bursts
system.mem_ctrls.dram.perBankWrBursts::10            0                       # Per bank write bursts
system.mem_ctrls.dram.perBankWrBursts::11            0                       # Per bank write bursts
system.mem_ctrls.dram.perBankWrBursts::12            0                       # Per bank write bursts
system.mem_ctrls.dram.perBankWrBursts::13            0                       # Per bank write bursts
system.mem_ctrls.dram.perBankWrBursts::14            0                       # Per bank write bursts
system.mem_ctrls.dram.perBankWrBursts::15            0                       # Per bank write bursts
system.mem_ctrls.dram.totQLat                40490750                       # Total ticks spent queuing
system.mem_ctrls.dram.totBusLat              28225000                       # Total ticks spent in databus transfers
system.mem_ctrls.dram.totMemAccLat          146334500                       # Total ticks spent from burst creation until serviced by the DRAM
system.mem_ctrls.dram.avgQLat                 7172.85                       # Average queueing delay per DRAM burst
system.mem_ctrls.dram.avgBusLat               5000.00                       # Average bus latency per DRAM burst
system.mem_ctrls.dram.avgMemAccLat           25922.85                       # Average memory access latency per DRAM burst
system.mem_ctrls.dram.readRowHits                4497                       # Number of row buffer hits during reads
system.mem_ctrls.dram.writeRowHits                  0                       # Number of row buffer hits during writes
system.mem_ctrls.dram.readRowHitRate            79.66                       # Row buffer hit rate for reads
system.mem_ctrls.dram.writeRowHitRate             nan                       # Row buffer hit rate for writes
system.mem_ctrls.dram.bytesPerActivate::samples         1148                       # Bytes accessed per row activation
system.mem_ctrls.dram.bytesPerActivate::mean   314.703833                       # Bytes accessed per row activation
system.mem_ctrls.dram.bytesPerActivate::gmean   207.967625                       # Bytes accessed per row activation
system.mem_ctrls.dram.bytesPerActivate::stdev   293.808790                       # Bytes accessed per row activation
system.mem_ctrls.dram.bytesPerActivate::0-127          303     26.39%     26.39% # Bytes accessed per row activation
system.mem_ctrls.dram.bytesPerActivate::128-255          287     25.00%     51.39% # Bytes accessed per row activation
system.mem_ctrls.dram.bytesPerActivate::256-383          200     17.42%     68.82% # Bytes accessed per row activation
system.mem_ctrls.dram.bytesPerActivate::384-511          110      9.58%     78.40% # Bytes accessed per row activation
system.mem_ctrls.dram.bytesPerActivate::512-639           86      7.49%     85.89% # Bytes accessed per row activation
system.mem_ctrls.dram.bytesPerActivate::640-767           22      1.92%     87.80% # Bytes accessed per row activation
system.mem_ctrls.dram.bytesPerActivate::768-895           17      1.48%     89.29% # Bytes accessed per row activation
system.mem_ctrls.dram.bytesPerActivate::896-1023           18      1.57%     90.85% # Bytes accessed per row activation
system.mem_ctrls.dram.bytesPerActivate::1024-1151          105      9.15%    100.00% # Bytes accessed per row activation
system.mem_ctrls.dram.bytesPerActivate::total         1148                       # Bytes accessed per row activation
system.mem_ctrls.dram.bytesRead                361280                       # Total number of bytes read from DRAM
system.mem_ctrls.dram.bytesWritten                  0                       # Total number of bytes written to DRAM
system.mem_ctrls.dram.avgRdBW                2.578108                       # Average DRAM read bandwidth in MiBytes/s
system.mem_ctrls.dram.avgWrBW                       0                       # Average DRAM write bandwidth in MiBytes/s
system.mem_ctrls.dram.peakBW                 12800.00                       # Theoretical peak bandwidth in MiByte/s
system.mem_ctrls.dram.busUtil                    0.02                       # Data bus utilization in percentage
system.mem_ctrls.dram.busUtilRead                0.02                       # Data bus utilization in percentage for reads
system.mem_ctrls.dram.busUtilWrite               0.00                       # Data bus utilization in percentage for writes
system.mem_ctrls.dram.pageHitRate               79.66                       # Row buffer hit rate, read and write combined
system.mem_ctrls.dram.power_state.pwrStateResidencyTicks::UNDEFINED 140133764000                       # Cumulative time (in ticks) in various power states
system.mem_ctrls.dram.rank0.actEnergy         4512480                       # Energy for activate commands per rank (pJ)
system.mem_ctrls.dram.rank0.preEnergy         2398440                       # Energy for precharge commands per rank (pJ)
system.mem_ctrls.dram.rank0.readEnergy       20798820                       # Energy for read commands per rank (pJ)
system.mem_ctrls.dram.rank0.writeEnergy             0                       # Energy for write commands per rank (pJ)
system.mem_ctrls.dram.rank0.refreshEnergy 11061676080.000002                       # Energy for refresh commands per rank (pJ)
system.mem_ctrls.dram.rank0.actBackEnergy   2829701160                       # Energy for active background per rank (pJ)
system.mem_ctrls.dram.rank0.preBackEnergy  51428459520                       # Energy for precharge background per rank (pJ)
system.mem_ctrls.dram.rank0.actPowerDownEnergy            0                       # Energy for active power-down per rank (pJ)
system.mem_ctrls.dram.rank0.prePowerDownEnergy            0                       # Energy for precharge power-down per rank (pJ)
system.mem_ctrls.dram.rank0.selfRefreshEnergy            0                       # Energy for self refresh per rank (pJ)
system.mem_ctrls.dram.rank0.totalEnergy   65347546500                       # Total energy per rank (pJ)
system.mem_ctrls.dram.rank0.averagePower   466.322638                       # Core power per rank (mW)
system.mem_ctrls.dram.rank0.totalIdleTime            0                       # Total Idle time Per DRAM Rank
system.mem_ctrls.dram.rank0.pwrStateTime::IDLE 133676013000                       # Time in different power states
system.mem_ctrls.dram.rank0.pwrStateTime::REF   4679220000                       # Time in different power states
system.mem_ctrls.dram.rank0.pwrStateTime::SREF            0                       # Time in different power states
system.mem_ctrls.dram.rank0.pwrStateTime::PRE_PDN            0                       # Time in different power states
system.mem_ctrls.dram.rank0.pwrStateTime::ACT   1778531000                       # Time in different power states
system.mem_ctrls.dram.rank0.pwrStateTime::ACT_PDN            0                       # Time in different power states
system.mem_ctrls.dram.rank1.actEnergy         3684240                       # Energy for activate commands per rank (pJ)
system.mem_ctrls.dram.rank1.preEnergy         1958220                       # Energy for precharge commands per rank (pJ)
system.mem_ctrls.dram.rank1.readEnergy       19506480                       # Energy for read commands per rank (pJ)
system.mem_ctrls.dram.rank1.writeEnergy             0                       # Energy for write commands per rank (pJ)
system.mem_ctrls.dram.rank1.refreshEnergy 11061676080.000002                       # Energy for refresh commands per rank (pJ)
system.mem_ctrls.dram.rank1.actBackEnergy   2701195230                       # Energy for active background per rank (pJ)
system.mem_ctrls.dram.rank1.preBackEnergy  51536675040                       # Energy for precharge background per rank (pJ)
system.mem_ctrls.dram.rank1.actPowerDownEnergy            0                       # Energy for active power-down per rank (pJ)
system.mem_ctrls.dram.rank1.prePowerDownEnergy            0                       # Energy for precharge power-down per rank (pJ)
system.mem_ctrls.dram.rank1.selfRefreshEnergy            0                       # Energy for self refresh per rank (pJ)
system.mem_ctrls.dram.rank1.totalEnergy   65324695290                       # Total energy per rank (pJ)
system.mem_ctrls.dram.rank1.averagePower   466.159571                       # Core power per rank (mW)
system.mem_ctrls.dram.rank1.totalIdleTime            0                       # Total Idle time Per DRAM Rank
system.mem_ctrls.dram.rank1.pwrStateTime::IDLE 133958715750                       # Time in different power states
system.mem_ctrls.dram.rank1.pwrStateTime::REF   4679220000                       # Time in different power states
system.mem_ctrls.dram.rank1.pwrStateTime::SREF            0                       # Time in different power states
system.mem_ctrls.dram.rank1.pwrStateTime::PRE_PDN            0                       # Time in different power states
system.mem_ctrls.dram.rank1.pwrStateTime::ACT   1495828250                       # Time in different power states
system.mem_ctrls.dram.rank1.pwrStateTime::ACT_PDN            0                       # Time in different power states
system.mem_ctrls.power_state.pwrStateResidencyTicks::UNDEFINED 140133764000                       # Cumulative time (in ticks) in various power states
system.membus.trans_dist::ReadResp               1963                       # Transaction distribution
system.membus.trans_dist::ReadExReq              3682                       # Transaction distribution
system.membus.trans_dist::ReadExResp             3682                       # Transaction distribution
system.membus.trans_dist::ReadSharedReq          1963                       # Transaction distribution
system.membus.pkt_count_system.l2.mem_side_port::system.mem_ctrls.port        11290                       # Packet count per connected requestor and responder (bytes)
system.membus.pkt_count::total                  11290                       # Packet count per connected requestor and responder (bytes)
system.membus.pkt_size_system.l2.mem_side_port::system.mem_ctrls.port       361280                       # Cumulative packet size per connected requestor and responder (bytes)
system.membus.pkt_size::total                  361280                       # Cumulative packet size per connected requestor and responder (bytes)
system.membus.snoops                                0                       # Total snoops (count)
system.membus.snoopTraffic                          0                       # Total snoop traffic (bytes)
system.membus.snoop_fanout::samples              5645                       # Request fanout histogram
system.membus.snoop_fanout::mean                    0                       # Request fanout histogram
system.membus.snoop_fanout::stdev                   0                       # Request fanout histogram
system.membus.snoop_fanout::underflows              0      0.00%      0.00% # Request fanout histogram
system.membus.snoop_fanout::0                    5645    100.00%    100.00% # Request fanout histogram
system.membus.snoop_fanout::1                       0      0.00%    100.00% # Request fanout histogram
system.membus.snoop_fanout::overflows               0      0.00%    100.00% # Request fanout histogram
system.membus.snoop_fanout::min_value               0                       # Request fanout histogram
system.membus.snoop_fanout::max_value               0                       # Request fanout histogram
system.membus.snoop_fanout::total                5645                       # Request fanout histogram
system.membus.power_state.pwrStateResidencyTicks::UNDEFINED 140133764000                       # Cumulative time (in ticks) in various power states
system.membus.reqLayer0.occupancy             5645000                       # Layer occupancy (ticks)
system.membus.reqLayer0.utilization               0.0                       # Layer utilization (%)
system.membus.respLayer1.occupancy           29891000                       # Layer occupancy (ticks)
system.membus.respLayer1.utilization              0.0                       # Layer utilization (%)
system.tol2bus.trans_dist::ReadResp             37221                       # Transaction distribution
system.tol2bus.trans_dist::WritebackDirty       169473                       # Transaction distribution
system.tol2bus.trans_dist::WritebackClean         2155                       # Transaction distribution
system.tol2bus.trans_dist::CleanEvict            3740                       # Transaction distribution
system.tol2bus.trans_dist::ReadExReq           139644                       # Transaction distribution
system.tol2bus.trans_dist::ReadExResp          139644                       # Transaction distribution
system.tol2bus.trans_dist::ReadCleanReq          2628                       # Transaction distribution
system.tol2bus.trans_dist::ReadSharedReq        34593                       # Transaction distribution
system.tol2bus.pkt_count_system.cpu.icache.mem_side_port::system.l2.cpu_side_port         7411                       # Packet count per connected requestor and responder (bytes)
system.tol2bus.pkt_count_system.cpu.dcache.mem_side_port::system.l2.cpu_side_port       521687                       # Packet count per connected requestor and responder (bytes)
system.tol2bus.pkt_count::total                529098                       # Packet count per connected requestor and responder (bytes)
system.tol2bus.pkt_size_system.cpu.icache.mem_side_port::system.l2.cpu_side_port       306112                       # Cumulative packet size per connected requestor and responder (bytes)
system.tol2bus.pkt_size_system.cpu.dcache.mem_side_port::system.l2.cpu_side_port     21997440                       # Cumulative packet size per connected requestor and responder (bytes)
system.tol2bus.pkt_size::total               22303552                       # Cumulative packet size per connected requestor and responder (bytes)
system.tol2bus.snoops                               0                       # Total snoops (count)
system.tol2bus.snoopTraffic                         0                       # Total snoop traffic (bytes)
system.tol2bus.snoop_fanout::samples           176865                       # Request fanout histogram
system.tol2bus.snoop_fanout::mean            0.010019                       # Request fanout histogram
system.tol2bus.snoop_fanout::stdev           0.099592                       # Request fanout histogram
system.tol2bus.snoop_fanout::underflows             0      0.00%      0.00% # Request fanout histogram
system.tol2bus.snoop_fanout::0                 175093     99.00%     99.00% # Request fanout histogram
system.tol2bus.snoop_fanout::1                   1772      1.00%    100.00% # Request fanout histogram
system.tol2bus.snoop_fanout::2                      0      0.00%    100.00% # Request fanout histogram
system.tol2bus.snoop_fanout::overflows              0      0.00%    100.00% # Request fanout histogram
system.tol2bus.snoop_fanout::min_value              0                       # Request fanout histogram
system.tol2bus.snoop_fanout::max_value              1                       # Request fanout histogram
system.tol2bus.snoop_fanout::total             176865                       # Request fanout histogram
system.tol2bus.power_state.pwrStateResidencyTicks::UNDEFINED 140133764000                       # Cumulative time (in ticks) in various power states
system.tol2bus.reqLayer0.occupancy          695489000                       # Layer occupancy (ticks)
system.tol2bus.reqLayer0.utilization              0.5                       # Layer utilization (%)
system.tol2bus.respLayer0.occupancy           7885998                       # Layer occupancy (ticks)
system.tol2bus.respLayer0.utilization             0.0                       # Layer utilization (%)
system.tol2bus.respLayer1.occupancy         522716994                       # Layer occupancy (ticks)
system.tol2bus.respLayer1.utilization             0.4                       # Layer utilization (%)
system.voltage_domain.voltage                       1                       # Voltage in Volts

---------- End Simulation Statistics   ----------
