
---------- Begin Simulation Statistics ----------
final_tick                               498362101000                       # Number of ticks from beginning of simulation (restored from checkpoints and never reset)
host_inst_rate                                 166233                       # Simulator instruction rate (inst/s)
host_mem_usage                                 674108                       # Number of bytes of host memory used
host_op_rate                                   306232                       # Simulator op (including micro ops) rate (op/s)
host_seconds                                   601.57                       # Real time elapsed on the host
host_tick_rate                              828440634                       # Simulator tick rate (ticks/s)
sim_freq                                 1000000000000                       # Frequency of simulated ticks
sim_insts                                   100000001                       # Number of instructions simulated
sim_ops                                     184218798                       # Number of ops (including micro ops) simulated
sim_seconds                                  0.498362                       # Number of seconds simulated
sim_ticks                                498362101000                       # Number of ticks simulated
system.cpu.committedInsts                   100000001                       # Number of instructions committed
system.cpu.committedOps                     184218798                       # Number of ops (including micro ops) committed
system.cpu.cpi                               4.983621                       # CPI: cycles per instruction
system.cpu.discardedOps                          4358                       # Number of ops (including micro ops) which were discarded before commit
system.cpu.idleCycles                       279307494                       # Total number of cycles that the object has spent stopped
system.cpu.ipc                               0.200657                       # IPC: instructions per cycle
system.cpu.numCycles                        498362101                       # number of cpu cycles simulated
system.cpu.numFetchSuspends                         0                       # Number of times Execute suspended instruction fetching
system.cpu.numWorkItemsCompleted                    0                       # number of work items this cpu completed
system.cpu.numWorkItemsStarted                      0                       # number of work items this cpu started
system.cpu.op_class_0::No_OpClass                   0      0.00%      0.00% # Class of committed instruction
system.cpu.op_class_0::IntAlu                97640478     53.00%     53.00% # Class of committed instruction
system.cpu.op_class_0::IntMult                 114699      0.06%     53.06% # Class of committed instruction
system.cpu.op_class_0::IntDiv                       0      0.00%     53.06% # Class of committed instruction
system.cpu.op_class_0::FloatAdd                     0      0.00%     53.06% # Class of committed instruction
system.cpu.op_class_0::FloatCmp                     0      0.00%     53.06% # Class of committed instruction
system.cpu.op_class_0::FloatCvt                     0      0.00%     53.06% # Class of committed instruction
system.cpu.op_class_0::FloatMult                    0      0.00%     53.06% # Class of committed instruction
system.cpu.op_class_0::FloatMultAcc                 0      0.00%     53.06% # Class of committed instruction
system.cpu.op_class_0::FloatDiv                     0      0.00%     53.06% # Class of committed instruction
system.cpu.op_class_0::FloatMisc                    0      0.00%     53.06% # Class of committed instruction
system.cpu.op_class_0::FloatSqrt                    0      0.00%     53.06% # Class of committed instruction
system.cpu.op_class_0::SimdAdd                      8      0.00%     53.06% # Class of committed instruction
system.cpu.op_class_0::SimdAddAcc                   0      0.00%     53.06% # Class of committed instruction
system.cpu.op_class_0::SimdAlu                      8      0.00%     53.06% # Class of committed instruction
system.cpu.op_class_0::SimdCmp                      6      0.00%     53.06% # Class of committed instruction
system.cpu.op_class_0::SimdCvt                      0      0.00%     53.06% # Class of committed instruction
system.cpu.op_class_0::SimdMisc                     1      0.00%     53.06% # Class of committed instruction
system.cpu.op_class_0::SimdMult                     0      0.00%     53.06% # Class of committed instruction
system.cpu.op_class_0::SimdMultAcc                  0      0.00%     53.06% # Class of committed instruction
system.cpu.op_class_0::SimdShift                    0      0.00%     53.06% # Class of committed instruction
system.cpu.op_class_0::SimdShiftAcc                 0      0.00%     53.06% # Class of committed instruction
system.cpu.op_class_0::SimdDiv                      0      0.00%     53.06% # Class of committed instruction
system.cpu.op_class_0::SimdSqrt                     0      0.00%     53.06% # Class of committed instruction
system.cpu.op_class_0::SimdFloatAdd                 0      0.00%     53.06% # Class of committed instruction
system.cpu.op_class_0::SimdFloatAlu                 0      0.00%     53.06% # Class of committed instruction
system.cpu.op_class_0::SimdFloatCmp                 0      0.00%     53.06% # Class of committed instruction
system.cpu.op_class_0::SimdFloatCvt                 0      0.00%     53.06% # Class of committed instruction
system.cpu.op_class_0::SimdFloatDiv                 0      0.00%     53.06% # Class of committed instruction
system.cpu.op_class_0::SimdFloatMisc               23      0.00%     53.06% # Class of committed instruction
system.cpu.op_class_0::SimdFloatMult                0      0.00%     53.06% # Class of committed instruction
system.cpu.op_class_0::SimdFloatMultAcc             0      0.00%     53.06% # Class of committed instruction
system.cpu.op_class_0::SimdFloatSqrt                0      0.00%     53.06% # Class of committed instruction
system.cpu.op_class_0::SimdReduceAdd                0      0.00%     53.06% # Class of committed instruction
system.cpu.op_class_0::SimdReduceAlu                0      0.00%     53.06% # Class of committed instruction
system.cpu.op_class_0::SimdReduceCmp                0      0.00%     53.06% # Class of committed instruction
system.cpu.op_class_0::SimdFloatReduceAdd            0      0.00%     53.06% # Class of committed instruction
system.cpu.op_class_0::SimdFloatReduceCmp            0      0.00%     53.06% # Class of committed instruction
system.cpu.op_class_0::SimdAes                      0      0.00%     53.06% # Class of committed instruction
system.cpu.op_class_0::SimdAesMix                   0      0.00%     53.06% # Class of committed instruction
system.cpu.op_class_0::SimdSha1Hash                 0      0.00%     53.06% # Class of committed instruction
system.cpu.op_class_0::SimdSha1Hash2                0      0.00%     53.06% # Class of committed instruction
system.cpu.op_class_0::SimdSha256Hash               0      0.00%     53.06% # Class of committed instruction
system.cpu.op_class_0::SimdSha256Hash2              0      0.00%     53.06% # Class of committed instruction
system.cpu.op_class_0::SimdShaSigma2                0      0.00%     53.06% # Class of committed instruction
system.cpu.op_class_0::SimdShaSigma3                0      0.00%     53.06% # Class of committed instruction
system.cpu.op_class_0::SimdPredAlu                  0      0.00%     53.06% # Class of committed instruction
system.cpu.op_class_0::MemRead                2082677      1.13%     54.20% # Class of committed instruction
system.cpu.op_class_0::MemWrite              84380898     45.80%    100.00% # Class of committed instruction
system.cpu.op_class_0::FloatMemRead                 0      0.00%    100.00% # Class of committed instruction
system.cpu.op_class_0::FloatMemWrite                0      0.00%    100.00% # Class of committed instruction
system.cpu.op_class_0::IprAccess                    0      0.00%    100.00% # Class of committed instruction
system.cpu.op_class_0::InstPrefetch                 0      0.00%    100.00% # Class of committed instruction
system.cpu.op_class_0::total                184218798                       # Class of committed instruction
system.cpu.tickCycles                       219054607                       # Number of cycles that the object actually ticked
system.cpu.workload.numSyscalls                    18                       # Number of system calls
system.membus.snoop_filter.hit_multi_requests            0                       # Number of requests hitting in the snoop filter with multiple (>1) holders of the requested data.
system.membus.snoop_filter.hit_multi_snoops            0                       # Number of snoops hitting in the snoop filter with multiple (>1) holders of the requested data.
system.membus.snoop_filter.hit_single_requests      2599052                       # Number of requests hitting in the snoop filter with a single holder of the requested data.
system.membus.snoop_filter.hit_single_snoops            0                       # Number of snoops hitting in the snoop filter with a single holder of the requested data.
system.membus.snoop_filter.tot_requests       5231228                       # Total number of requests made to the snoop filter.
system.membus.snoop_filter.tot_snoops               0                       # Total number of snoops made to the snoop filter.
system.tol2bus.snoop_filter.hit_multi_requests           61                       # Number of requests hitting in the snoop filter with multiple (>1) holders of the requested data.
system.tol2bus.snoop_filter.hit_multi_snoops            0                       # Number of snoops hitting in the snoop filter with multiple (>1) holders of the requested data.
system.tol2bus.snoop_filter.hit_single_requests      2631723                       # Number of requests hitting in the snoop filter with a single holder of the requested data.
system.tol2bus.snoop_filter.hit_single_snoops          393                       # Number of snoops hitting in the snoop filter with a single holder of the requested data.
system.tol2bus.snoop_filter.tot_requests      5264328                       # Total number of requests made to the snoop filter.
system.tol2bus.snoop_filter.tot_snoops            393                       # Total number of snoops made to the snoop filter.
system.clk_domain.clock                          1000                       # Clock period in ticks
system.cpu.branchPred.lookups                10658278                       # Number of BP lookups
system.cpu.branchPred.condPredicted          10650018                       # Number of conditional branches predicted
system.cpu.branchPred.condIncorrect              1442                       # Number of conditional branches incorrect
system.cpu.branchPred.BTBLookups             10650233                       # Number of BTB lookups
system.cpu.branchPred.BTBHits                10648841                       # Number of BTB hits
system.cpu.branchPred.BTBHitPct             99.986930                       # BTB Hit Percentage
system.cpu.branchPred.RASUsed                    2717                       # Number of times the RAS was used to get a target.
system.cpu.branchPred.RASIncorrect                  1                       # Number of incorrect RAS predictions.
system.cpu.branchPred.indirectLookups             199                       # Number of indirect predictor lookups.
system.cpu.branchPred.indirectHits                 24                       # Number of indirect target hits.
system.cpu.branchPred.indirectMisses              175                       # Number of indirect misses.
system.cpu.branchPred.indirectMispredicted          103                       # Number of mispredicted indirect branches.
system.cpu.dcache.demand_hits::.cpu.data     81118274                       # number of demand (read+write) hits
system.cpu.dcache.demand_hits::total         81118274                       # number of demand (read+write) hits
system.cpu.dcache.overall_hits::.cpu.data     81118317                       # number of overall hits
system.cpu.dcache.overall_hits::total        81118317                       # number of overall hits
system.cpu.dcache.demand_misses::.cpu.data      5262424                       # number of demand (read+write) misses
system.cpu.dcache.demand_misses::total        5262424                       # number of demand (read+write) misses
system.cpu.dcache.overall_misses::.cpu.data      5262452                       # number of overall misses
system.cpu.dcache.overall_misses::total       5262452                       # number of overall misses
system.cpu.dcache.demand_miss_latency::.cpu.data 634442284000                       # number of demand (read+write) miss cycles
system.cpu.dcache.demand_miss_latency::total 634442284000                       # number of demand (read+write) miss cycles
system.cpu.dcache.overall_miss_latency::.cpu.data 634442284000                       # number of overall miss cycles
system.cpu.dcache.overall_miss_latency::total 634442284000                       # number of overall miss cycles
system.cpu.dcache.demand_accesses::.cpu.data     86380698                       # number of demand (read+write) accesses
system.cpu.dcache.demand_accesses::total     86380698                       # number of demand (read+write) accesses
system.cpu.dcache.overall_accesses::.cpu.data     86380769                       # number of overall (read+write) accesses
system.cpu.dcache.overall_accesses::total     86380769                       # number of overall (read+write) accesses
system.cpu.dcache.demand_miss_rate::.cpu.data     0.060921                       # miss rate for demand accesses
system.cpu.dcache.demand_miss_rate::total     0.060921                       # miss rate for demand accesses
system.cpu.dcache.overall_miss_rate::.cpu.data     0.060922                       # miss rate for overall accesses
system.cpu.dcache.overall_miss_rate::total     0.060922                       # miss rate for overall accesses
system.cpu.dcache.demand_avg_miss_latency::.cpu.data 120560.844964                       # average overall miss latency
system.cpu.dcache.demand_avg_miss_latency::total 120560.844964                       # average overall miss latency
system.cpu.dcache.overall_avg_miss_latency::.cpu.data 120560.203494                       # average overall miss latency
system.cpu.dcache.overall_avg_miss_latency::total 120560.203494                       # average overall miss latency
system.cpu.dcache.blocked_cycles::no_mshrs            0                       # number of cycles access was blocked
system.cpu.dcache.blocked_cycles::no_targets            0                       # number of cycles access was blocked
system.cpu.dcache.blocked::no_mshrs                 0                       # number of cycles access was blocked
system.cpu.dcache.blocked::no_targets               0                       # number of cycles access was blocked
system.cpu.dcache.avg_blocked_cycles::no_mshrs          nan                       # average number of cycles each access was blocked
system.cpu.dcache.avg_blocked_cycles::no_targets          nan                       # average number of cycles each access was blocked
system.cpu.dcache.writebacks::.writebacks      2631301                       # number of writebacks
system.cpu.dcache.writebacks::total           2631301                       # number of writebacks
system.cpu.dcache.demand_mshr_hits::.cpu.data      2630246                       # number of demand (read+write) MSHR hits
system.cpu.dcache.demand_mshr_hits::total      2630246                       # number of demand (read+write) MSHR hits
system.cpu.dcache.overall_mshr_hits::.cpu.data      2630246                       # number of overall MSHR hits
system.cpu.dcache.overall_mshr_hits::total      2630246                       # number of overall MSHR hits
system.cpu.dcache.demand_mshr_misses::.cpu.data      2632178                       # number of demand (read+write) MSHR misses
system.cpu.dcache.demand_mshr_misses::total      2632178                       # number of demand (read+write) MSHR misses
system.cpu.dcache.overall_mshr_misses::.cpu.data      2632196                       # number of overall MSHR misses
system.cpu.dcache.overall_mshr_misses::total      2632196                       # number of overall MSHR misses
system.cpu.dcache.demand_mshr_miss_latency::.cpu.data 308111365000                       # number of demand (read+write) MSHR miss cycles
system.cpu.dcache.demand_mshr_miss_latency::total 308111365000                       # number of demand (read+write) MSHR miss cycles
system.cpu.dcache.overall_mshr_miss_latency::.cpu.data 308113868000                       # number of overall MSHR miss cycles
system.cpu.dcache.overall_mshr_miss_latency::total 308113868000                       # number of overall MSHR miss cycles
system.cpu.dcache.demand_mshr_miss_rate::.cpu.data     0.030472                       # mshr miss rate for demand accesses
system.cpu.dcache.demand_mshr_miss_rate::total     0.030472                       # mshr miss rate for demand accesses
system.cpu.dcache.overall_mshr_miss_rate::.cpu.data     0.030472                       # mshr miss rate for overall accesses
system.cpu.dcache.overall_mshr_miss_rate::total     0.030472                       # mshr miss rate for overall accesses
system.cpu.dcache.demand_avg_mshr_miss_latency::.cpu.data 117055.672147                       # average overall mshr miss latency
system.cpu.dcache.demand_avg_mshr_miss_latency::total 117055.672147                       # average overall mshr miss latency
system.cpu.dcache.overall_avg_mshr_miss_latency::.cpu.data 117055.822591                       # average overall mshr miss latency
system.cpu.dcache.overall_avg_mshr_miss_latency::total 117055.822591                       # average overall mshr miss latency
system.cpu.dcache.replacements                2631684                       # number of replacements
system.cpu.dcache.ReadReq_hits::.cpu.data      2043689                       # number of ReadReq hits
system.cpu.dcache.ReadReq_hits::total         2043689                       # number of ReadReq hits
system.cpu.dcache.ReadReq_misses::.cpu.data          420                       # number of ReadReq misses
system.cpu.dcache.ReadReq_misses::total           420                       # number of ReadReq misses
system.cpu.dcache.ReadReq_miss_latency::.cpu.data     30936000                       # number of ReadReq miss cycles
system.cpu.dcache.ReadReq_miss_latency::total     30936000                       # number of ReadReq miss cycles
system.cpu.dcache.ReadReq_accesses::.cpu.data      2044109                       # number of ReadReq accesses(hits+misses)
system.cpu.dcache.ReadReq_accesses::total      2044109                       # number of ReadReq accesses(hits+misses)
system.cpu.dcache.ReadReq_miss_rate::.cpu.data     0.000205                       # miss rate for ReadReq accesses
system.cpu.dcache.ReadReq_miss_rate::total     0.000205                       # miss rate for ReadReq accesses
system.cpu.dcache.ReadReq_avg_miss_latency::.cpu.data 73657.142857                       # average ReadReq miss latency
system.cpu.dcache.ReadReq_avg_miss_latency::total 73657.142857                       # average ReadReq miss latency
system.cpu.dcache.ReadReq_mshr_hits::.cpu.data           22                       # number of ReadReq MSHR hits
system.cpu.dcache.ReadReq_mshr_hits::total           22                       # number of ReadReq MSHR hits
system.cpu.dcache.ReadReq_mshr_misses::.cpu.data          398                       # number of ReadReq MSHR misses
system.cpu.dcache.ReadReq_mshr_misses::total          398                       # number of ReadReq MSHR misses
system.cpu.dcache.ReadReq_mshr_miss_latency::.cpu.data     27858000                       # number of ReadReq MSHR miss cycles
system.cpu.dcache.ReadReq_mshr_miss_latency::total     27858000                       # number of ReadReq MSHR miss cycles
system.cpu.dcache.ReadReq_mshr_miss_rate::.cpu.data     0.000195                       # mshr miss rate for ReadReq accesses
system.cpu.dcache.ReadReq_mshr_miss_rate::total     0.000195                       # mshr miss rate for ReadReq accesses
system.cpu.dcache.ReadReq_avg_mshr_miss_latency::.cpu.data 69994.974874                       # average ReadReq mshr miss latency
system.cpu.dcache.ReadReq_avg_mshr_miss_latency::total 69994.974874                       # average ReadReq mshr miss latency
system.cpu.dcache.WriteReq_hits::.cpu.data     79074585                       # number of WriteReq hits
system.cpu.dcache.WriteReq_hits::total       79074585                       # number of WriteReq hits
system.cpu.dcache.WriteReq_misses::.cpu.data      5262004                       # number of WriteReq misses
system.cpu.dcache.WriteReq_misses::total      5262004                       # number of WriteReq misses
system.cpu.dcache.WriteReq_miss_latency::.cpu.data 634411348000                       # number of WriteReq miss cycles
system.cpu.dcache.WriteReq_miss_latency::total 634411348000                       # number of WriteReq miss cycles
system.cpu.dcache.WriteReq_accesses::.cpu.data     84336589                       # number of WriteReq accesses(hits+misses)
system.cpu.dcache.WriteReq_accesses::total     84336589                       # number of WriteReq accesses(hits+misses)
system.cpu.dcache.WriteReq_miss_rate::.cpu.data     0.062393                       # miss rate for WriteReq accesses
system.cpu.dcache.WriteReq_miss_rate::total     0.062393                       # miss rate for WriteReq accesses
system.cpu.dcache.WriteReq_avg_miss_latency::.cpu.data 120564.588700                       # average WriteReq miss latency
system.cpu.dcache.WriteReq_avg_miss_latency::total 120564.588700                       # average WriteReq miss latency
system.cpu.dcache.WriteReq_mshr_hits::.cpu.data      2630224                       # number of WriteReq MSHR hits
system.cpu.dcache.WriteReq_mshr_hits::total      2630224                       # number of WriteReq MSHR hits
system.cpu.dcache.WriteReq_mshr_misses::.cpu.data      2631780                       # number of WriteReq MSHR misses
system.cpu.dcache.WriteReq_mshr_misses::total      2631780                       # number of WriteReq MSHR misses
system.cpu.dcache.WriteReq_mshr_miss_latency::.cpu.data 308083507000                       # number of WriteReq MSHR miss cycles
system.cpu.dcache.WriteReq_mshr_miss_latency::total 308083507000                       # number of WriteReq MSHR miss cycles
system.cpu.dcache.WriteReq_mshr_miss_rate::.cpu.data     0.031206                       # mshr miss rate for WriteReq accesses
system.cpu.dcache.WriteReq_mshr_miss_rate::total     0.031206                       # mshr miss rate for WriteReq accesses
system.cpu.dcache.WriteReq_avg_mshr_miss_latency::.cpu.data 117062.789063                       # average WriteReq mshr miss latency
system.cpu.dcache.WriteReq_avg_mshr_miss_latency::total 117062.789063                       # average WriteReq mshr miss latency
system.cpu.dcache.SoftPFReq_hits::.cpu.data           43                       # number of SoftPFReq hits
system.cpu.dcache.SoftPFReq_hits::total            43                       # number of SoftPFReq hits
system.cpu.dcache.SoftPFReq_misses::.cpu.data           28                       # number of SoftPFReq misses
system.cpu.dcache.SoftPFReq_misses::total           28                       # number of SoftPFReq misses
system.cpu.dcache.SoftPFReq_accesses::.cpu.data           71                       # number of SoftPFReq accesses(hits+misses)
system.cpu.dcache.SoftPFReq_accesses::total           71                       # number of SoftPFReq accesses(hits+misses)
system.cpu.dcache.SoftPFReq_miss_rate::.cpu.data     0.394366                       # miss rate for SoftPFReq accesses
system.cpu.dcache.SoftPFReq_miss_rate::total     0.394366                       # miss rate for SoftPFReq accesses
system.cpu.dcache.SoftPFReq_mshr_misses::.cpu.data           18                       # number of SoftPFReq MSHR misses
system.cpu.dcache.SoftPFReq_mshr_misses::total           18                       # number of SoftPFReq MSHR misses
system.cpu.dcache.SoftPFReq_mshr_miss_latency::.cpu.data      2503000                       # number of SoftPFReq MSHR miss cycles
system.cpu.dcache.SoftPFReq_mshr_miss_latency::total      2503000                       # number of SoftPFReq MSHR miss cycles
system.cpu.dcache.SoftPFReq_mshr_miss_rate::.cpu.data     0.253521                       # mshr miss rate for SoftPFReq accesses
system.cpu.dcache.SoftPFReq_mshr_miss_rate::total     0.253521                       # mshr miss rate for SoftPFReq accesses
system.cpu.dcache.SoftPFReq_avg_mshr_miss_latency::.cpu.data 139055.555556                       # average SoftPFReq mshr miss latency
system.cpu.dcache.SoftPFReq_avg_mshr_miss_latency::total 139055.555556                       # average SoftPFReq mshr miss latency
system.cpu.dcache.LoadLockedReq_hits::.cpu.data           34                       # number of LoadLockedReq hits
system.cpu.dcache.LoadLockedReq_hits::total           34                       # number of LoadLockedReq hits
system.cpu.dcache.LoadLockedReq_accesses::.cpu.data           34                       # number of LoadLockedReq accesses(hits+misses)
system.cpu.dcache.LoadLockedReq_accesses::total           34                       # number of LoadLockedReq accesses(hits+misses)
system.cpu.dcache.StoreCondReq_hits::.cpu.data           34                       # number of StoreCondReq hits
system.cpu.dcache.StoreCondReq_hits::total           34                       # number of StoreCondReq hits
system.cpu.dcache.StoreCondReq_accesses::.cpu.data           34                       # number of StoreCondReq accesses(hits+misses)
system.cpu.dcache.StoreCondReq_accesses::total           34                       # number of StoreCondReq accesses(hits+misses)
system.cpu.dcache.power_state.pwrStateResidencyTicks::UNDEFINED 498362101000                       # Cumulative time (in ticks) in various power states
system.cpu.dcache.tags.tagsinuse           511.761651                       # Cycle average of tags in use
system.cpu.dcache.tags.total_refs            83750581                       # Total number of references to valid blocks.
system.cpu.dcache.tags.sampled_refs           2632196                       # Sample count of references to valid blocks.
system.cpu.dcache.tags.avg_refs             31.817760                       # Average number of references to valid blocks.
system.cpu.dcache.tags.warmup_cycle            233000                       # Cycle when the warmup percentage was hit.
system.cpu.dcache.tags.occ_blocks::.cpu.data   511.761651                       # Average occupied blocks per requestor
system.cpu.dcache.tags.occ_percent::.cpu.data     0.999534                       # Average percentage of cache occupancy
system.cpu.dcache.tags.occ_percent::total     0.999534                       # Average percentage of cache occupancy
system.cpu.dcache.tags.occ_task_id_blocks::1024          512                       # Occupied blocks per task id
system.cpu.dcache.tags.age_task_id_blocks_1024::0           53                       # Occupied blocks per task id
system.cpu.dcache.tags.age_task_id_blocks_1024::1          459                       # Occupied blocks per task id
system.cpu.dcache.tags.occ_task_id_percent::1024            1                       # Percentage of cache occupancy per task id
system.cpu.dcache.tags.tag_accesses         175393870                       # Number of tag accesses
system.cpu.dcache.tags.data_accesses        175393870                       # Number of data accesses
system.cpu.dcache.tags.power_state.pwrStateResidencyTicks::UNDEFINED 498362101000                       # Cumulative time (in ticks) in various power states
system.cpu.dtb.instHits                             0                       # ITB inst hits
system.cpu.dtb.instMisses                           0                       # ITB inst misses
system.cpu.dtb.readHits                             0                       # DTB read hits
system.cpu.dtb.readMisses                           0                       # DTB read misses
system.cpu.dtb.writeHits                            0                       # DTB write hits
system.cpu.dtb.writeMisses                          0                       # DTB write misses
system.cpu.dtb.inserts                              0                       # Number of times an entry is inserted into the TLB
system.cpu.dtb.flushTlb                             0                       # Number of times complete TLB was flushed
system.cpu.dtb.flushTlbMva                          0                       # Number of times TLB was flushed by MVA
system.cpu.dtb.flushTlbMvaAsid                      0                       # Number of times TLB was flushed by MVA & ASID
system.cpu.dtb.flushTlbAsid                         0                       # Number of times TLB was flushed by ASID
system.cpu.dtb.flushedEntries                       0                       # Number of entries that have been flushed from TLB
system.cpu.dtb.alignFaults                          0                       # Number of TLB faults due to alignment restrictions
system.cpu.dtb.prefetchFaults                       0                       # Number of TLB faults due to prefetch
system.cpu.dtb.domainFaults                         0                       # Number of TLB faults due to domain restrictions
system.cpu.dtb.permsFaults                          0                       # Number of TLB faults due to permissions restrictions
system.cpu.dtb.readAccesses                         0                       # DTB read accesses
system.cpu.dtb.writeAccesses                        0                       # DTB write accesses
system.cpu.dtb.instAccesses                         0                       # ITB inst accesses
system.cpu.dtb.hits                                 0                       # Total TLB (inst and data) hits
system.cpu.dtb.misses                               0                       # Total TLB (inst and data) misses
system.cpu.dtb.accesses                             0                       # Total TLB (inst and data) accesses
system.cpu.dtb.stage2_mmu.stage2_tlb.instHits            0                       # ITB inst hits
system.cpu.dtb.stage2_mmu.stage2_tlb.instMisses            0                       # ITB inst misses
system.cpu.dtb.stage2_mmu.stage2_tlb.readHits            0                       # DTB read hits
system.cpu.dtb.stage2_mmu.stage2_tlb.readMisses            0                       # DTB read misses
system.cpu.dtb.stage2_mmu.stage2_tlb.writeHits            0                       # DTB write hits
system.cpu.dtb.stage2_mmu.stage2_tlb.writeMisses            0                       # DTB write misses
system.cpu.dtb.stage2_mmu.stage2_tlb.inserts            0                       # Number of times an entry is inserted into the TLB
system.cpu.dtb.stage2_mmu.stage2_tlb.flushTlb            0                       # Number of times complete TLB was flushed
system.cpu.dtb.stage2_mmu.stage2_tlb.flushTlbMva            0                       # Number of times TLB was flushed by MVA
system.cpu.dtb.stage2_mmu.stage2_tlb.flushTlbMvaAsid            0                       # Number of times TLB was flushed by MVA & ASID
system.cpu.dtb.stage2_mmu.stage2_tlb.flushTlbAsid            0                       # Number of times TLB was flushed by ASID
system.cpu.dtb.stage2_mmu.stage2_tlb.flushedEntries            0                       # Number of entries that have been flushed from TLB
system.cpu.dtb.stage2_mmu.stage2_tlb.alignFaults            0                       # Number of TLB faults due to alignment restrictions
system.cpu.dtb.stage2_mmu.stage2_tlb.prefetchFaults            0                       # Number of TLB faults due to prefetch
system.cpu.dtb.stage2_mmu.stage2_tlb.domainFaults            0                       # Number of TLB faults due to domain restrictions
system.cpu.dtb.stage2_mmu.stage2_tlb.permsFaults            0                       # Number of TLB faults due to permissions restrictions
system.cpu.dtb.stage2_mmu.stage2_tlb.readAccesses            0                       # DTB read accesses
system.cpu.dtb.stage2_mmu.stage2_tlb.writeAccesses            0                       # DTB write accesses
system.cpu.dtb.stage2_mmu.stage2_tlb.instAccesses            0                       # ITB inst accesses
system.cpu.dtb.stage2_mmu.stage2_tlb.hits            0                       # Total TLB (inst and data) hits
system.cpu.dtb.stage2_mmu.stage2_tlb.misses            0                       # Total TLB (inst and data) misses
system.cpu.dtb.stage2_mmu.stage2_tlb.accesses            0                       # Total TLB (inst and data) accesses
system.cpu.dtb.stage2_mmu.stage2_tlb.walker.walks            0                       # Table walker walks requested
system.cpu.dtb.stage2_mmu.stage2_tlb.walker.requestOrigin_Requested::Data            0                       # Table walker requests started/completed, data/inst
system.cpu.dtb.stage2_mmu.stage2_tlb.walker.requestOrigin_Requested::Inst            0                       # Table walker requests started/completed, data/inst
system.cpu.dtb.stage2_mmu.stage2_tlb.walker.requestOrigin_Requested::total            0                       # Table walker requests started/completed, data/inst
system.cpu.dtb.stage2_mmu.stage2_tlb.walker.requestOrigin_Completed::Data            0                       # Table walker requests started/completed, data/inst
system.cpu.dtb.stage2_mmu.stage2_tlb.walker.requestOrigin_Completed::Inst            0                       # Table walker requests started/completed, data/inst
system.cpu.dtb.stage2_mmu.stage2_tlb.walker.requestOrigin_Completed::total            0                       # Table walker requests started/completed, data/inst
system.cpu.dtb.stage2_mmu.stage2_tlb.walker.requestOrigin::total            0                       # Table walker requests started/completed, data/inst
system.cpu.dtb.stage2_mmu.stage2_tlb.walker.power_state.pwrStateResidencyTicks::UNDEFINED 498362101000                       # Cumulative time (in ticks) in various power states
system.cpu.dtb.walker.walks                         0                       # Table walker walks requested
system.cpu.dtb.walker.requestOrigin_Requested::Data            0                       # Table walker requests started/completed, data/inst
system.cpu.dtb.walker.requestOrigin_Requested::Inst            0                       # Table walker requests started/completed, data/inst
system.cpu.dtb.walker.requestOrigin_Requested::total            0                       # Table walker requests started/completed, data/inst
system.cpu.dtb.walker.requestOrigin_Completed::Data            0                       # Table walker requests started/completed, data/inst
system.cpu.dtb.walker.requestOrigin_Completed::Inst            0                       # Table walker requests started/completed, data/inst
system.cpu.dtb.walker.requestOrigin_Completed::total            0                       # Table walker requests started/completed, data/inst
system.cpu.dtb.walker.requestOrigin::total            0                       # Table walker requests started/completed, data/inst
system.cpu.dtb.walker.power_state.pwrStateResidencyTicks::UNDEFINED 498362101000                       # Cumulative time (in ticks) in various power states
system.cpu.fetch2.intInstructions            45071085                       # Number of integer instructions successfully decoded
system.cpu.fetch2.fpInstructions                    0                       # Number of floating point instructions successfully decoded
system.cpu.fetch2.vecInstructions                   0                       # Number of SIMD instructions successfully decoded
system.cpu.fetch2.loadInstructions            2086511                       # Number of memory load instructions successfully decoded
system.cpu.fetch2.storeInstructions            169171                       # Number of memory store instructions successfully decoded
system.cpu.fetch2.amoInstructions                   0                       # Number of memory atomic instructions successfully decoded
system.cpu.icache.demand_hits::.cpu.inst     32043568                       # number of demand (read+write) hits
system.cpu.icache.demand_hits::total         32043568                       # number of demand (read+write) hits
system.cpu.icache.overall_hits::.cpu.inst     32043568                       # number of overall hits
system.cpu.icache.overall_hits::total        32043568                       # number of overall hits
system.cpu.icache.demand_misses::.cpu.inst          409                       # number of demand (read+write) misses
system.cpu.icache.demand_misses::total            409                       # number of demand (read+write) misses
system.cpu.icache.overall_misses::.cpu.inst          409                       # number of overall misses
system.cpu.icache.overall_misses::total           409                       # number of overall misses
system.cpu.icache.demand_miss_latency::.cpu.inst     43546000                       # number of demand (read+write) miss cycles
system.cpu.icache.demand_miss_latency::total     43546000                       # number of demand (read+write) miss cycles
system.cpu.icache.overall_miss_latency::.cpu.inst     43546000                       # number of overall miss cycles
system.cpu.icache.overall_miss_latency::total     43546000                       # number of overall miss cycles
system.cpu.icache.demand_accesses::.cpu.inst     32043977                       # number of demand (read+write) accesses
system.cpu.icache.demand_accesses::total     32043977                       # number of demand (read+write) accesses
system.cpu.icache.overall_accesses::.cpu.inst     32043977                       # number of overall (read+write) accesses
system.cpu.icache.overall_accesses::total     32043977                       # number of overall (read+write) accesses
system.cpu.icache.demand_miss_rate::.cpu.inst     0.000013                       # miss rate for demand accesses
system.cpu.icache.demand_miss_rate::total     0.000013                       # miss rate for demand accesses
system.cpu.icache.overall_miss_rate::.cpu.inst     0.000013                       # miss rate for overall accesses
system.cpu.icache.overall_miss_rate::total     0.000013                       # miss rate for overall accesses
system.cpu.icache.demand_avg_miss_latency::.cpu.inst 106469.437653                       # average overall miss latency
system.cpu.icache.demand_avg_miss_latency::total 106469.437653                       # average overall miss latency
system.cpu.icache.overall_avg_miss_latency::.cpu.inst 106469.437653                       # average overall miss latency
system.cpu.icache.overall_avg_miss_latency::total 106469.437653                       # average overall miss latency
system.cpu.icache.blocked_cycles::no_mshrs            0                       # number of cycles access was blocked
system.cpu.icache.blocked_cycles::no_targets            0                       # number of cycles access was blocked
system.cpu.icache.blocked::no_mshrs                 0                       # number of cycles access was blocked
system.cpu.icache.blocked::no_targets               0                       # number of cycles access was blocked
system.cpu.icache.avg_blocked_cycles::no_mshrs          nan                       # average number of cycles each access was blocked
system.cpu.icache.avg_blocked_cycles::no_targets          nan                       # average number of cycles each access was blocked
system.cpu.icache.writebacks::.writebacks           39                       # number of writebacks
system.cpu.icache.writebacks::total                39                       # number of writebacks
system.cpu.icache.demand_mshr_misses::.cpu.inst          409                       # number of demand (read+write) MSHR misses
system.cpu.icache.demand_mshr_misses::total          409                       # number of demand (read+write) MSHR misses
system.cpu.icache.overall_mshr_misses::.cpu.inst          409                       # number of overall MSHR misses
system.cpu.icache.overall_mshr_misses::total          409                       # number of overall MSHR misses
system.cpu.icache.demand_mshr_miss_latency::.cpu.inst     42728000                       # number of demand (read+write) MSHR miss cycles
system.cpu.icache.demand_mshr_miss_latency::total     42728000                       # number of demand (read+write) MSHR miss cycles
system.cpu.icache.overall_mshr_miss_latency::.cpu.inst     42728000                       # number of overall MSHR miss cycles
system.cpu.icache.overall_mshr_miss_latency::total     42728000                       # number of overall MSHR miss cycles
system.cpu.icache.demand_mshr_miss_rate::.cpu.inst     0.000013                       # mshr miss rate for demand accesses
system.cpu.icache.demand_mshr_miss_rate::total     0.000013                       # mshr miss rate for demand accesses
system.cpu.icache.overall_mshr_miss_rate::.cpu.inst     0.000013                       # mshr miss rate for overall accesses
system.cpu.icache.overall_mshr_miss_rate::total     0.000013                       # mshr miss rate for overall accesses
system.cpu.icache.demand_avg_mshr_miss_latency::.cpu.inst 104469.437653                       # average overall mshr miss latency
system.cpu.icache.demand_avg_mshr_miss_latency::total 104469.437653                       # average overall mshr miss latency
system.cpu.icache.overall_avg_mshr_miss_latency::.cpu.inst 104469.437653                       # average overall mshr miss latency
system.cpu.icache.overall_avg_mshr_miss_latency::total 104469.437653                       # average overall mshr miss latency
system.cpu.icache.replacements                     39                       # number of replacements
system.cpu.icache.ReadReq_hits::.cpu.inst     32043568                       # number of ReadReq hits
system.cpu.icache.ReadReq_hits::total        32043568                       # number of ReadReq hits
system.cpu.icache.ReadReq_misses::.cpu.inst          409                       # number of ReadReq misses
system.cpu.icache.ReadReq_misses::total           409                       # number of ReadReq misses
system.cpu.icache.ReadReq_miss_latency::.cpu.inst     43546000                       # number of ReadReq miss cycles
system.cpu.icache.ReadReq_miss_latency::total     43546000                       # number of ReadReq miss cycles
system.cpu.icache.ReadReq_accesses::.cpu.inst     32043977                       # number of ReadReq accesses(hits+misses)
system.cpu.icache.ReadReq_accesses::total     32043977                       # number of ReadReq accesses(hits+misses)
system.cpu.icache.ReadReq_miss_rate::.cpu.inst     0.000013                       # miss rate for ReadReq accesses
system.cpu.icache.ReadReq_miss_rate::total     0.000013                       # miss rate for ReadReq accesses
system.cpu.icache.ReadReq_avg_miss_latency::.cpu.inst 106469.437653                       # average ReadReq miss latency
system.cpu.icache.ReadReq_avg_miss_latency::total 106469.437653                       # average ReadReq miss latency
system.cpu.icache.ReadReq_mshr_misses::.cpu.inst          409                       # number of ReadReq MSHR misses
system.cpu.icache.ReadReq_mshr_misses::total          409                       # number of ReadReq MSHR misses
system.cpu.icache.ReadReq_mshr_miss_latency::.cpu.inst     42728000                       # number of ReadReq MSHR miss cycles
system.cpu.icache.ReadReq_mshr_miss_latency::total     42728000                       # number of ReadReq MSHR miss cycles
system.cpu.icache.ReadReq_mshr_miss_rate::.cpu.inst     0.000013                       # mshr miss rate for ReadReq accesses
system.cpu.icache.ReadReq_mshr_miss_rate::total     0.000013                       # mshr miss rate for ReadReq accesses
system.cpu.icache.ReadReq_avg_mshr_miss_latency::.cpu.inst 104469.437653                       # average ReadReq mshr miss latency
system.cpu.icache.ReadReq_avg_mshr_miss_latency::total 104469.437653                       # average ReadReq mshr miss latency
system.cpu.icache.power_state.pwrStateResidencyTicks::UNDEFINED 498362101000                       # Cumulative time (in ticks) in various power states
system.cpu.icache.tags.tagsinuse           314.530065                       # Cycle average of tags in use
system.cpu.icache.tags.total_refs            32043977                       # Total number of references to valid blocks.
system.cpu.icache.tags.sampled_refs               409                       # Sample count of references to valid blocks.
system.cpu.icache.tags.avg_refs          78347.132029                       # Average number of references to valid blocks.
system.cpu.icache.tags.warmup_cycle            113000                       # Cycle when the warmup percentage was hit.
system.cpu.icache.tags.occ_blocks::.cpu.inst   314.530065                       # Average occupied blocks per requestor
system.cpu.icache.tags.occ_percent::.cpu.inst     0.307158                       # Average percentage of cache occupancy
system.cpu.icache.tags.occ_percent::total     0.307158                       # Average percentage of cache occupancy
system.cpu.icache.tags.occ_task_id_blocks::1024          370                       # Occupied blocks per task id
system.cpu.icache.tags.age_task_id_blocks_1024::4          370                       # Occupied blocks per task id
system.cpu.icache.tags.occ_task_id_percent::1024     0.361328                       # Percentage of cache occupancy per task id
system.cpu.icache.tags.tag_accesses          32044386                       # Number of tag accesses
system.cpu.icache.tags.data_accesses         32044386                       # Number of data accesses
system.cpu.icache.tags.power_state.pwrStateResidencyTicks::UNDEFINED 498362101000                       # Cumulative time (in ticks) in various power states
system.cpu.itb.instHits                             0                       # ITB inst hits
system.cpu.itb.instMisses                           0                       # ITB inst misses
system.cpu.itb.readHits                             0                       # DTB read hits
system.cpu.itb.readMisses                           0                       # DTB read misses
system.cpu.itb.writeHits                            0                       # DTB write hits
system.cpu.itb.writeMisses                          0                       # DTB write misses
system.cpu.itb.inserts                              0                       # Number of times an entry is inserted into the TLB
system.cpu.itb.flushTlb                             0                       # Number of times complete TLB was flushed
system.cpu.itb.flushTlbMva                          0                       # Number of times TLB was flushed by MVA
system.cpu.itb.flushTlbMvaAsid                      0                       # Number of times TLB was flushed by MVA & ASID
system.cpu.itb.flushTlbAsid                         0                       # Number of times TLB was flushed by ASID
system.cpu.itb.flushedEntries                       0                       # Number of entries that have been flushed from TLB
system.cpu.itb.alignFaults                          0                       # Number of TLB faults due to alignment restrictions
system.cpu.itb.prefetchFaults                       0                       # Number of TLB faults due to prefetch
system.cpu.itb.domainFaults                         0                       # Number of TLB faults due to domain restrictions
system.cpu.itb.permsFaults                          0                       # Number of TLB faults due to permissions restrictions
system.cpu.itb.readAccesses                         0                       # DTB read accesses
system.cpu.itb.writeAccesses                        0                       # DTB write accesses
system.cpu.itb.instAccesses                         0                       # ITB inst accesses
system.cpu.itb.hits                                 0                       # Total TLB (inst and data) hits
system.cpu.itb.misses                               0                       # Total TLB (inst and data) misses
system.cpu.itb.accesses                             0                       # Total TLB (inst and data) accesses
system.cpu.itb.stage2_mmu.stage2_tlb.instHits            0                       # ITB inst hits
system.cpu.itb.stage2_mmu.stage2_tlb.instMisses            0                       # ITB inst misses
system.cpu.itb.stage2_mmu.stage2_tlb.readHits            0                       # DTB read hits
system.cpu.itb.stage2_mmu.stage2_tlb.readMisses            0                       # DTB read misses
system.cpu.itb.stage2_mmu.stage2_tlb.writeHits            0                       # DTB write hits
system.cpu.itb.stage2_mmu.stage2_tlb.writeMisses            0                       # DTB write misses
system.cpu.itb.stage2_mmu.stage2_tlb.inserts            0                       # Number of times an entry is inserted into the TLB
system.cpu.itb.stage2_mmu.stage2_tlb.flushTlb            0                       # Number of times complete TLB was flushed
system.cpu.itb.stage2_mmu.stage2_tlb.flushTlbMva            0                       # Number of times TLB was flushed by MVA
system.cpu.itb.stage2_mmu.stage2_tlb.flushTlbMvaAsid            0                       # Number of times TLB was flushed by MVA & ASID
system.cpu.itb.stage2_mmu.stage2_tlb.flushTlbAsid            0                       # Number of times TLB was flushed by ASID
system.cpu.itb.stage2_mmu.stage2_tlb.flushedEntries            0                       # Number of entries that have been flushed from TLB
system.cpu.itb.stage2_mmu.stage2_tlb.alignFaults            0                       # Number of TLB faults due to alignment restrictions
system.cpu.itb.stage2_mmu.stage2_tlb.prefetchFaults            0                       # Number of TLB faults due to prefetch
system.cpu.itb.stage2_mmu.stage2_tlb.domainFaults            0                       # Number of TLB faults due to domain restrictions
system.cpu.itb.stage2_mmu.stage2_tlb.permsFaults            0                       # Number of TLB faults due to permissions restrictions
system.cpu.itb.stage2_mmu.stage2_tlb.readAccesses            0                       # DTB read accesses
system.cpu.itb.stage2_mmu.stage2_tlb.writeAccesses            0                       # DTB write accesses
system.cpu.itb.stage2_mmu.stage2_tlb.instAccesses            0                       # ITB inst accesses
system.cpu.itb.stage2_mmu.stage2_tlb.hits            0                       # Total TLB (inst and data) hits
system.cpu.itb.stage2_mmu.stage2_tlb.misses            0                       # Total TLB (inst and data) misses
system.cpu.itb.stage2_mmu.stage2_tlb.accesses            0                       # Total TLB (inst and data) accesses
system.cpu.itb.stage2_mmu.stage2_tlb.walker.walks            0                       # Table walker walks requested
system.cpu.itb.stage2_mmu.stage2_tlb.walker.requestOrigin_Requested::Data            0                       # Table walker requests started/completed, data/inst
system.cpu.itb.stage2_mmu.stage2_tlb.walker.requestOrigin_Requested::Inst            0                       # Table walker requests started/completed, data/inst
system.cpu.itb.stage2_mmu.stage2_tlb.walker.requestOrigin_Requested::total            0                       # Table walker requests started/completed, data/inst
system.cpu.itb.stage2_mmu.stage2_tlb.walker.requestOrigin_Completed::Data            0                       # Table walker requests started/completed, data/inst
system.cpu.itb.stage2_mmu.stage2_tlb.walker.requestOrigin_Completed::Inst            0                       # Table walker requests started/completed, data/inst
system.cpu.itb.stage2_mmu.stage2_tlb.walker.requestOrigin_Completed::total            0                       # Table walker requests started/completed, data/inst
system.cpu.itb.stage2_mmu.stage2_tlb.walker.requestOrigin::total            0                       # Table walker requests started/completed, data/inst
system.cpu.itb.stage2_mmu.stage2_tlb.walker.power_state.pwrStateResidencyTicks::UNDEFINED 498362101000                       # Cumulative time (in ticks) in various power states
system.cpu.itb.walker.walks                         0                       # Table walker walks requested
system.cpu.itb.walker.requestOrigin_Requested::Data            0                       # Table walker requests started/completed, data/inst
system.cpu.itb.walker.requestOrigin_Requested::Inst            0                       # Table walker requests started/completed, data/inst
system.cpu.itb.walker.requestOrigin_Requested::total            0                       # Table walker requests started/completed, data/inst
system.cpu.itb.walker.requestOrigin_Completed::Data            0                       # Table walker requests started/completed, data/inst
system.cpu.itb.walker.requestOrigin_Completed::Inst            0                       # Table walker requests started/completed, data/inst
system.cpu.itb.walker.requestOrigin_Completed::total            0                       # Table walker requests started/completed, data/inst
system.cpu.itb.walker.requestOrigin::total            0                       # Table walker requests started/completed, data/inst
system.cpu.itb.walker.power_state.pwrStateResidencyTicks::UNDEFINED 498362101000                       # Cumulative time (in ticks) in various power states
system.cpu.power_state.pwrStateResidencyTicks::ON 498362101000                       # Cumulative time (in ticks) in various power states
system.cpu.thread_0.numInsts                100000001                       # Number of Instructions committed
system.cpu.thread_0.numOps                  184218798                       # Number of Ops committed
system.cpu.thread_0.numMemRefs                      0                       # Number of Memory References
system.cpu_clk_domain.clock                      1000                       # Clock period in ticks
system.cpu_voltage_domain.voltage                   1                       # Voltage in Volts
system.l2.demand_hits::.cpu.inst                   26                       # number of demand (read+write) hits
system.l2.demand_hits::.cpu.data                  380                       # number of demand (read+write) hits
system.l2.demand_hits::total                      406                       # number of demand (read+write) hits
system.l2.overall_hits::.cpu.inst                  26                       # number of overall hits
system.l2.overall_hits::.cpu.data                 380                       # number of overall hits
system.l2.overall_hits::total                     406                       # number of overall hits
system.l2.demand_misses::.cpu.inst                383                       # number of demand (read+write) misses
system.l2.demand_misses::.cpu.data            2631816                       # number of demand (read+write) misses
system.l2.demand_misses::total                2632199                       # number of demand (read+write) misses
system.l2.overall_misses::.cpu.inst               383                       # number of overall misses
system.l2.overall_misses::.cpu.data           2631816                       # number of overall misses
system.l2.overall_misses::total               2632199                       # number of overall misses
system.l2.demand_miss_latency::.cpu.inst     40893000                       # number of demand (read+write) miss cycles
system.l2.demand_miss_latency::.cpu.data 300209135000                       # number of demand (read+write) miss cycles
system.l2.demand_miss_latency::total     300250028000                       # number of demand (read+write) miss cycles
system.l2.overall_miss_latency::.cpu.inst     40893000                       # number of overall miss cycles
system.l2.overall_miss_latency::.cpu.data 300209135000                       # number of overall miss cycles
system.l2.overall_miss_latency::total    300250028000                       # number of overall miss cycles
system.l2.demand_accesses::.cpu.inst              409                       # number of demand (read+write) accesses
system.l2.demand_accesses::.cpu.data          2632196                       # number of demand (read+write) accesses
system.l2.demand_accesses::total              2632605                       # number of demand (read+write) accesses
system.l2.overall_accesses::.cpu.inst             409                       # number of overall (read+write) accesses
system.l2.overall_accesses::.cpu.data         2632196                       # number of overall (read+write) accesses
system.l2.overall_accesses::total             2632605                       # number of overall (read+write) accesses
system.l2.demand_miss_rate::.cpu.inst        0.936430                       # miss rate for demand accesses
system.l2.demand_miss_rate::.cpu.data        0.999856                       # miss rate for demand accesses
system.l2.demand_miss_rate::total            0.999846                       # miss rate for demand accesses
system.l2.overall_miss_rate::.cpu.inst       0.936430                       # miss rate for overall accesses
system.l2.overall_miss_rate::.cpu.data       0.999856                       # miss rate for overall accesses
system.l2.overall_miss_rate::total           0.999846                       # miss rate for overall accesses
system.l2.demand_avg_miss_latency::.cpu.inst 106770.234987                       # average overall miss latency
system.l2.demand_avg_miss_latency::.cpu.data 114069.195947                       # average overall miss latency
system.l2.demand_avg_miss_latency::total 114068.133906                       # average overall miss latency
system.l2.overall_avg_miss_latency::.cpu.inst 106770.234987                       # average overall miss latency
system.l2.overall_avg_miss_latency::.cpu.data 114069.195947                       # average overall miss latency
system.l2.overall_avg_miss_latency::total 114068.133906                       # average overall miss latency
system.l2.blocked_cycles::no_mshrs                  0                       # number of cycles access was blocked
system.l2.blocked_cycles::no_targets                0                       # number of cycles access was blocked
system.l2.blocked::no_mshrs                         0                       # number of cycles access was blocked
system.l2.blocked::no_targets                       0                       # number of cycles access was blocked
system.l2.avg_blocked_cycles::no_mshrs            nan                       # average number of cycles each access was blocked
system.l2.avg_blocked_cycles::no_targets          nan                       # average number of cycles each access was blocked
system.l2.writebacks::.writebacks             2598860                       # number of writebacks
system.l2.writebacks::total                   2598860                       # number of writebacks
system.l2.demand_mshr_hits::.cpu.inst               1                       # number of demand (read+write) MSHR hits
system.l2.demand_mshr_hits::.cpu.data               8                       # number of demand (read+write) MSHR hits
system.l2.demand_mshr_hits::total                   9                       # number of demand (read+write) MSHR hits
system.l2.overall_mshr_hits::.cpu.inst              1                       # number of overall MSHR hits
system.l2.overall_mshr_hits::.cpu.data              8                       # number of overall MSHR hits
system.l2.overall_mshr_hits::total                  9                       # number of overall MSHR hits
system.l2.demand_mshr_misses::.cpu.inst           382                       # number of demand (read+write) MSHR misses
system.l2.demand_mshr_misses::.cpu.data       2631808                       # number of demand (read+write) MSHR misses
system.l2.demand_mshr_misses::total           2632190                       # number of demand (read+write) MSHR misses
system.l2.overall_mshr_misses::.cpu.inst          382                       # number of overall MSHR misses
system.l2.overall_mshr_misses::.cpu.data      2631808                       # number of overall MSHR misses
system.l2.overall_mshr_misses::total          2632190                       # number of overall MSHR misses
system.l2.demand_mshr_miss_latency::.cpu.inst     33022000                       # number of demand (read+write) MSHR miss cycles
system.l2.demand_mshr_miss_latency::.cpu.data 247572332000                       # number of demand (read+write) MSHR miss cycles
system.l2.demand_mshr_miss_latency::total 247605354000                       # number of demand (read+write) MSHR miss cycles
system.l2.overall_mshr_miss_latency::.cpu.inst     33022000                       # number of overall MSHR miss cycles
system.l2.overall_mshr_miss_latency::.cpu.data 247572332000                       # number of overall MSHR miss cycles
system.l2.overall_mshr_miss_latency::total 247605354000                       # number of overall MSHR miss cycles
system.l2.demand_mshr_miss_rate::.cpu.inst     0.933985                       # mshr miss rate for demand accesses
system.l2.demand_mshr_miss_rate::.cpu.data     0.999853                       # mshr miss rate for demand accesses
system.l2.demand_mshr_miss_rate::total       0.999842                       # mshr miss rate for demand accesses
system.l2.overall_mshr_miss_rate::.cpu.inst     0.933985                       # mshr miss rate for overall accesses
system.l2.overall_mshr_miss_rate::.cpu.data     0.999853                       # mshr miss rate for overall accesses
system.l2.overall_mshr_miss_rate::total      0.999842                       # mshr miss rate for overall accesses
system.l2.demand_avg_mshr_miss_latency::.cpu.inst 86445.026178                       # average overall mshr miss latency
system.l2.demand_avg_mshr_miss_latency::.cpu.data 94069.298368                       # average overall mshr miss latency
system.l2.demand_avg_mshr_miss_latency::total 94068.191886                       # average overall mshr miss latency
system.l2.overall_avg_mshr_miss_latency::.cpu.inst 86445.026178                       # average overall mshr miss latency
system.l2.overall_avg_mshr_miss_latency::.cpu.data 94069.298368                       # average overall mshr miss latency
system.l2.overall_avg_mshr_miss_latency::total 94068.191886                       # average overall mshr miss latency
system.l2.replacements                        2599431                       # number of replacements
system.l2.WritebackDirty_hits::.writebacks      2631301                       # number of WritebackDirty hits
system.l2.WritebackDirty_hits::total          2631301                       # number of WritebackDirty hits
system.l2.WritebackDirty_accesses::.writebacks      2631301                       # number of WritebackDirty accesses(hits+misses)
system.l2.WritebackDirty_accesses::total      2631301                       # number of WritebackDirty accesses(hits+misses)
system.l2.WritebackClean_hits::.writebacks           38                       # number of WritebackClean hits
system.l2.WritebackClean_hits::total               38                       # number of WritebackClean hits
system.l2.WritebackClean_accesses::.writebacks           38                       # number of WritebackClean accesses(hits+misses)
system.l2.WritebackClean_accesses::total           38                       # number of WritebackClean accesses(hits+misses)
system.l2.ReadExReq_hits::.cpu.data               174                       # number of ReadExReq hits
system.l2.ReadExReq_hits::total                   174                       # number of ReadExReq hits
system.l2.ReadExReq_misses::.cpu.data         2631606                       # number of ReadExReq misses
system.l2.ReadExReq_misses::total             2631606                       # number of ReadExReq misses
system.l2.ReadExReq_miss_latency::.cpu.data 300184503000                       # number of ReadExReq miss cycles
system.l2.ReadExReq_miss_latency::total  300184503000                       # number of ReadExReq miss cycles
system.l2.ReadExReq_accesses::.cpu.data       2631780                       # number of ReadExReq accesses(hits+misses)
system.l2.ReadExReq_accesses::total           2631780                       # number of ReadExReq accesses(hits+misses)
system.l2.ReadExReq_miss_rate::.cpu.data     0.999934                       # miss rate for ReadExReq accesses
system.l2.ReadExReq_miss_rate::total         0.999934                       # miss rate for ReadExReq accesses
system.l2.ReadExReq_avg_miss_latency::.cpu.data 114068.938511                       # average ReadExReq miss latency
system.l2.ReadExReq_avg_miss_latency::total 114068.938511                       # average ReadExReq miss latency
system.l2.ReadExReq_mshr_misses::.cpu.data      2631606                       # number of ReadExReq MSHR misses
system.l2.ReadExReq_mshr_misses::total        2631606                       # number of ReadExReq MSHR misses
system.l2.ReadExReq_mshr_miss_latency::.cpu.data 247552383000                       # number of ReadExReq MSHR miss cycles
system.l2.ReadExReq_mshr_miss_latency::total 247552383000                       # number of ReadExReq MSHR miss cycles
system.l2.ReadExReq_mshr_miss_rate::.cpu.data     0.999934                       # mshr miss rate for ReadExReq accesses
system.l2.ReadExReq_mshr_miss_rate::total     0.999934                       # mshr miss rate for ReadExReq accesses
system.l2.ReadExReq_avg_mshr_miss_latency::.cpu.data 94068.938511                       # average ReadExReq mshr miss latency
system.l2.ReadExReq_avg_mshr_miss_latency::total 94068.938511                       # average ReadExReq mshr miss latency
system.l2.ReadCleanReq_hits::.cpu.inst             26                       # number of ReadCleanReq hits
system.l2.ReadCleanReq_hits::total                 26                       # number of ReadCleanReq hits
system.l2.ReadCleanReq_misses::.cpu.inst          383                       # number of ReadCleanReq misses
system.l2.ReadCleanReq_misses::total              383                       # number of ReadCleanReq misses
system.l2.ReadCleanReq_miss_latency::.cpu.inst     40893000                       # number of ReadCleanReq miss cycles
system.l2.ReadCleanReq_miss_latency::total     40893000                       # number of ReadCleanReq miss cycles
system.l2.ReadCleanReq_accesses::.cpu.inst          409                       # number of ReadCleanReq accesses(hits+misses)
system.l2.ReadCleanReq_accesses::total            409                       # number of ReadCleanReq accesses(hits+misses)
system.l2.ReadCleanReq_miss_rate::.cpu.inst     0.936430                       # miss rate for ReadCleanReq accesses
system.l2.ReadCleanReq_miss_rate::total      0.936430                       # miss rate for ReadCleanReq accesses
system.l2.ReadCleanReq_avg_miss_latency::.cpu.inst 106770.234987                       # average ReadCleanReq miss latency
system.l2.ReadCleanReq_avg_miss_latency::total 106770.234987                       # average ReadCleanReq miss latency
system.l2.ReadCleanReq_mshr_hits::.cpu.inst            1                       # number of ReadCleanReq MSHR hits
system.l2.ReadCleanReq_mshr_hits::total             1                       # number of ReadCleanReq MSHR hits
system.l2.ReadCleanReq_mshr_misses::.cpu.inst          382                       # number of ReadCleanReq MSHR misses
system.l2.ReadCleanReq_mshr_misses::total          382                       # number of ReadCleanReq MSHR misses
system.l2.ReadCleanReq_mshr_miss_latency::.cpu.inst     33022000                       # number of ReadCleanReq MSHR miss cycles
system.l2.ReadCleanReq_mshr_miss_latency::total     33022000                       # number of ReadCleanReq MSHR miss cycles
system.l2.ReadCleanReq_mshr_miss_rate::.cpu.inst     0.933985                       # mshr miss rate for ReadCleanReq accesses
system.l2.ReadCleanReq_mshr_miss_rate::total     0.933985                       # mshr miss rate for ReadCleanReq accesses
system.l2.ReadCleanReq_avg_mshr_miss_latency::.cpu.inst 86445.026178                       # average ReadCleanReq mshr miss latency
system.l2.ReadCleanReq_avg_mshr_miss_latency::total 86445.026178                       # average ReadCleanReq mshr miss latency
system.l2.ReadSharedReq_hits::.cpu.data           206                       # number of ReadSharedReq hits
system.l2.ReadSharedReq_hits::total               206                       # number of ReadSharedReq hits
system.l2.ReadSharedReq_misses::.cpu.data          210                       # number of ReadSharedReq misses
system.l2.ReadSharedReq_misses::total             210                       # number of ReadSharedReq misses
system.l2.ReadSharedReq_miss_latency::.cpu.data     24632000                       # number of ReadSharedReq miss cycles
system.l2.ReadSharedReq_miss_latency::total     24632000                       # number of ReadSharedReq miss cycles
system.l2.ReadSharedReq_accesses::.cpu.data          416                       # number of ReadSharedReq accesses(hits+misses)
system.l2.ReadSharedReq_accesses::total           416                       # number of ReadSharedReq accesses(hits+misses)
system.l2.ReadSharedReq_miss_rate::.cpu.data     0.504808                       # miss rate for ReadSharedReq accesses
system.l2.ReadSharedReq_miss_rate::total     0.504808                       # miss rate for ReadSharedReq accesses
system.l2.ReadSharedReq_avg_miss_latency::.cpu.data 117295.238095                       # average ReadSharedReq miss latency
system.l2.ReadSharedReq_avg_miss_latency::total 117295.238095                       # average ReadSharedReq miss latency
system.l2.ReadSharedReq_mshr_hits::.cpu.data            8                       # number of ReadSharedReq MSHR hits
system.l2.ReadSharedReq_mshr_hits::total            8                       # number of ReadSharedReq MSHR hits
system.l2.ReadSharedReq_mshr_misses::.cpu.data          202                       # number of ReadSharedReq MSHR misses
system.l2.ReadSharedReq_mshr_misses::total          202                       # number of ReadSharedReq MSHR misses
system.l2.ReadSharedReq_mshr_miss_latency::.cpu.data     19949000                       # number of ReadSharedReq MSHR miss cycles
system.l2.ReadSharedReq_mshr_miss_latency::total     19949000                       # number of ReadSharedReq MSHR miss cycles
system.l2.ReadSharedReq_mshr_miss_rate::.cpu.data     0.485577                       # mshr miss rate for ReadSharedReq accesses
system.l2.ReadSharedReq_mshr_miss_rate::total     0.485577                       # mshr miss rate for ReadSharedReq accesses
system.l2.ReadSharedReq_avg_mshr_miss_latency::.cpu.data 98757.425743                       # average ReadSharedReq mshr miss latency
system.l2.ReadSharedReq_avg_mshr_miss_latency::total 98757.425743                       # average ReadSharedReq mshr miss latency
system.l2.power_state.pwrStateResidencyTicks::UNDEFINED 498362101000                       # Cumulative time (in ticks) in various power states
system.l2.tags.tagsinuse                 32228.050691                       # Cycle average of tags in use
system.l2.tags.total_refs                     5264258                       # Total number of references to valid blocks.
system.l2.tags.sampled_refs                   2632199                       # Sample count of references to valid blocks.
system.l2.tags.avg_refs                      1.999947                       # Average number of references to valid blocks.
system.l2.tags.warmup_cycle                     92000                       # Cycle when the warmup percentage was hit.
system.l2.tags.occ_blocks::.writebacks       0.104864                       # Average occupied blocks per requestor
system.l2.tags.occ_blocks::.cpu.inst         6.809786                       # Average occupied blocks per requestor
system.l2.tags.occ_blocks::.cpu.data     32221.136041                       # Average occupied blocks per requestor
system.l2.tags.occ_percent::.writebacks      0.000003                       # Average percentage of cache occupancy
system.l2.tags.occ_percent::.cpu.inst        0.000208                       # Average percentage of cache occupancy
system.l2.tags.occ_percent::.cpu.data        0.983311                       # Average percentage of cache occupancy
system.l2.tags.occ_percent::total            0.983522                       # Average percentage of cache occupancy
system.l2.tags.occ_task_id_blocks::1024         32768                       # Occupied blocks per task id
system.l2.tags.age_task_id_blocks_1024::0           53                       # Occupied blocks per task id
system.l2.tags.age_task_id_blocks_1024::1          480                       # Occupied blocks per task id
system.l2.tags.age_task_id_blocks_1024::2         4814                       # Occupied blocks per task id
system.l2.tags.age_task_id_blocks_1024::3        27421                       # Occupied blocks per task id
system.l2.tags.occ_task_id_percent::1024            1                       # Percentage of cache occupancy per task id
system.l2.tags.tag_accesses                  44746335                       # Number of tag accesses
system.l2.tags.data_accesses                 44746335                       # Number of data accesses
system.l2.tags.power_state.pwrStateResidencyTicks::UNDEFINED 498362101000                       # Cumulative time (in ticks) in various power states
system.mem_ctrls.avgPriority_.writebacks::samples   5197720.00                       # Average QoS priority value for accepted requests
system.mem_ctrls.avgPriority_.cpu.inst::samples       764.00                       # Average QoS priority value for accepted requests
system.mem_ctrls.avgPriority_.cpu.data::samples   5263616.00                       # Average QoS priority value for accepted requests
system.mem_ctrls.priorityMinLatency      0.000000018750                       # per QoS priority minimum request to response latency (s)
system.mem_ctrls.priorityMaxLatency      0.001168339500                       # per QoS priority maximum request to response latency (s)
system.mem_ctrls.numReadWriteTurnArounds       289104                       # Number of turnarounds from READ to WRITE
system.mem_ctrls.numWriteReadTurnArounds       289104                       # Number of turnarounds from WRITE to READ
system.mem_ctrls.numStayReadState            10397851                       # Number of times bus staying in READ state
system.mem_ctrls.numStayWriteState            4921427                       # Number of times bus staying in WRITE state
system.mem_ctrls.readReqs                     2632190                       # Number of read requests accepted
system.mem_ctrls.writeReqs                    2598860                       # Number of write requests accepted
system.mem_ctrls.readBursts                   5264380                       # Number of controller read bursts, including those serviced by the write queue
system.mem_ctrls.writeBursts                  5197720                       # Number of controller write bursts, including those merged in the write queue
system.mem_ctrls.servicedByWrQ                      0                       # Number of controller read bursts serviced by the write queue
system.mem_ctrls.mergedWrBursts                     0                       # Number of controller write bursts merged with an existing one
system.mem_ctrls.neitherReadNorWriteReqs            0                       # Number of requests that are neither read nor write
system.mem_ctrls.avgRdQLen                       2.00                       # Average read queue length when enqueuing
system.mem_ctrls.avgWrQLen                      25.07                       # Average write queue length when enqueuing
system.mem_ctrls.numRdRetry                         0                       # Number of times read queue was full causing retry
system.mem_ctrls.numWrRetry                         0                       # Number of times write queue was full causing retry
system.mem_ctrls.readPktSize::0                     0                       # Read request sizes (log2)
system.mem_ctrls.readPktSize::1                     0                       # Read request sizes (log2)
system.mem_ctrls.readPktSize::2                     0                       # Read request sizes (log2)
system.mem_ctrls.readPktSize::3                     0                       # Read request sizes (log2)
system.mem_ctrls.readPktSize::4                     0                       # Read request sizes (log2)
system.mem_ctrls.readPktSize::5                     0                       # Read request sizes (log2)
system.mem_ctrls.readPktSize::6               5264380                       # Read request sizes (log2)
system.mem_ctrls.readPktSize::7                     0                       # Read request sizes (log2)
system.mem_ctrls.writePktSize::0                    0                       # Write request sizes (log2)
system.mem_ctrls.writePktSize::1                    0                       # Write request sizes (log2)
system.mem_ctrls.writePktSize::2                    0                       # Write request sizes (log2)
system.mem_ctrls.writePktSize::3                    0                       # Write request sizes (log2)
system.mem_ctrls.writePktSize::4                    0                       # Write request sizes (log2)
system.mem_ctrls.writePktSize::5                    0                       # Write request sizes (log2)
system.mem_ctrls.writePktSize::6              5197720                       # Write request sizes (log2)
system.mem_ctrls.writePktSize::7                    0                       # Write request sizes (log2)
system.mem_ctrls.rdQLenPdf::0                 2632008                       # What read queue length does an incoming req see
system.mem_ctrls.rdQLenPdf::1                 2632011                       # What read queue length does an incoming req see
system.mem_ctrls.rdQLenPdf::2                     171                       # What read queue length does an incoming req see
system.mem_ctrls.rdQLenPdf::3                     170                       # What read queue length does an incoming req see
system.mem_ctrls.rdQLenPdf::4                      11                       # What read queue length does an incoming req see
system.mem_ctrls.rdQLenPdf::5                       9                       # What read queue length does an incoming req see
system.mem_ctrls.rdQLenPdf::6                       0                       # What read queue length does an incoming req see
system.mem_ctrls.rdQLenPdf::7                       0                       # What read queue length does an incoming req see
system.mem_ctrls.rdQLenPdf::8                       0                       # What read queue length does an incoming req see
system.mem_ctrls.rdQLenPdf::9                       0                       # What read queue length does an incoming req see
[...]
system.mem_ctrls.dram.bw_write::.writebacks    667494738                       # Write bandwidth from this memory (bytes/s)
system.mem_ctrls.dram.bw_write::total       667494738                       # Write bandwidth from this memory (bytes/s)
system.mem_ctrls.dram.bw_total::.writebacks    667494738                       # Total bandwidth to/from this memory (bytes/s)
system.mem_ctrls.dram.bw_total::.cpu.inst        98113                       # Total bandwidth to/from this memory (bytes/s)
system.mem_ctrls.dram.bw_total::.cpu.data    675957147                       # Total bandwidth to/from this memory (bytes/s)
system.mem_ctrls.dram.bw_total::total      1343549998                       # Total bandwidth to/from this memory (bytes/s)
system.mem_ctrls.dram.readBursts              5264380                       # Number of DRAM read bursts
system.mem_ctrls.dram.writeBursts             5197691                       # Number of DRAM write bursts
system.mem_ctrls.dram.perBankRdBursts::0       329078                       # Per bank write bursts
system.mem_ctrls.dram.perBankRdBursts::1       329142                       # Per bank write bursts
system.mem_ctrls.dram.perBankRdBursts::2       329162                       # Per bank write bursts
system.mem_ctrls.dram.perBankRdBursts::3       329040                       # Per bank write bursts
system.mem_ctrls.dram.perBankRdBursts::4       329036                       # Per bank write bursts
system.mem_ctrls.dram.perBankRdBursts::5       329094                       # Per bank write bursts
system.mem_ctrls.dram.perBankRdBursts::6       329110                       # Per bank write bursts
system.mem_ctrls.dram.perBankRdBursts::7       328956                       # Per bank write bursts
system.mem_ctrls.dram.perBankRdBursts::8       328912                       # Per bank write bursts
system.mem_ctrls.dram.perBankRdBursts::9       328886                       # Per bank write bursts
system.mem_ctrls.dram.perBankRdBursts::10       328926                       # Per bank write bursts
system.mem_ctrls.dram.perBankRdBursts::11       328994                       # Per bank write bursts
system.mem_ctrls.dram.perBankRdBursts::12       329056                       # Per bank write bursts
system.mem_ctrls.dram.perBankRdBursts::13       329054                       # Per bank write bursts
system.mem_ctrls.dram.perBankRdBursts::14       329104                       # Per bank write bursts
system.mem_ctrls.dram.perBankRdBursts::15       328830                       # Per bank write bursts
system.mem_ctrls.dram.perBankWrBursts::0       324820                       # Per bank write bursts
system.mem_ctrls.dram.perBankWrBursts::1       324947                       # Per bank write bursts
system.mem_ctrls.dram.perBankWrBursts::2       324988                       # Per bank write bursts
system.mem_ctrls.dram.perBankWrBursts::3       324902                       # Per bank write bursts
system.mem_ctrls.dram.perBankWrBursts::4       324930                       # Per bank write bursts
system.mem_ctrls.dram.perBankWrBursts::5       324938                       # Per bank write bursts
system.mem_ctrls.dram.perBankWrBursts::6       324950                       # Per bank write bursts
system.mem_ctrls.dram.perBankWrBursts::7       324834                       # Per bank write bursts
system.mem_ctrls.dram.perBankWrBursts::8       324736                       # Per bank write bursts
system.mem_ctrls.dram.perBankWrBursts::9       324736                       # Per bank write bursts
system.mem_ctrls.dram.perBankWrBursts::10       324736                       # Per bank write bursts
system.mem_ctrls.dram.perBankWrBursts::11       324826                       # Per bank write bursts
system.mem_ctrls.dram.perBankWrBursts::12       324894                       # Per bank write bursts
system.mem_ctrls.dram.perBankWrBursts::13       324876                       # Per bank write bursts
system.mem_ctrls.dram.perBankWrBursts::14       324884                       # Per bank write bursts
system.mem_ctrls.dram.perBankWrBursts::15       324694                       # Per bank write bursts
system.mem_ctrls.dram.totQLat            112922325000                       # Total ticks spent queuing
system.mem_ctrls.dram.totBusLat           26321900000                       # Total ticks spent in databus transfers
system.mem_ctrls.dram.totMemAccLat       211629450000                       # Total ticks spent from burst creation until serviced by the DRAM
system.mem_ctrls.dram.avgQLat                21450.26                       # Average queueing delay per DRAM burst
system.mem_ctrls.dram.avgBusLat               5000.00                       # Average bus latency per DRAM burst
system.mem_ctrls.dram.avgMemAccLat           40200.26                       # Average memory access latency per DRAM burst
system.mem_ctrls.dram.readRowHits             4675534                       # Number of row buffer hits during reads
system.mem_ctrls.dram.writeRowHits            4617439                       # Number of row buffer hits during writes
system.mem_ctrls.dram.readRowHitRate            88.81                       # Row buffer hit rate for reads
system.mem_ctrls.dram.writeRowHitRate           88.84                       # Row buffer hit rate for writes
system.mem_ctrls.dram.bytesPerActivate::samples      1169097                       # Bytes accessed per row activation
system.mem_ctrls.dram.bytesPerActivate::mean   572.725486                       # Bytes accessed per row activation
system.mem_ctrls.dram.bytesPerActivate::gmean   379.958238                       # Bytes accessed per row activation
system.mem_ctrls.dram.bytesPerActivate::stdev   419.974575                       # Bytes accessed per row activation
system.mem_ctrls.dram.bytesPerActivate::0-127        19754      1.69%      1.69% # Bytes accessed per row activation
system.mem_ctrls.dram.bytesPerActivate::128-255       471323     40.32%     42.00% # Bytes accessed per row activation
system.mem_ctrls.dram.bytesPerActivate::256-383        41029      3.51%     45.51% # Bytes accessed per row activation
system.mem_ctrls.dram.bytesPerActivate::384-511        32839      2.81%     48.32% # Bytes accessed per row activation
system.mem_ctrls.dram.bytesPerActivate::512-639        28927      2.47%     50.80% # Bytes accessed per row activation
system.mem_ctrls.dram.bytesPerActivate::640-767        28740      2.46%     53.26% # Bytes accessed per row activation
system.mem_ctrls.dram.bytesPerActivate::768-895        32794      2.81%     56.06% # Bytes accessed per row activation
system.mem_ctrls.dram.bytesPerActivate::896-1023        32266      2.76%     58.82% # Bytes accessed per row activation
system.mem_ctrls.dram.bytesPerActivate::1024-1151       481425     41.18%    100.00% # Bytes accessed per row activation
system.mem_ctrls.dram.bytesPerActivate::total      1169097                       # Bytes accessed per row activation
system.mem_ctrls.dram.bytesRead             336920320                       # Total number of bytes read from DRAM
system.mem_ctrls.dram.bytesWritten          332652224                       # Total number of bytes written to DRAM
system.mem_ctrls.dram.avgRdBW              676.055260                       # Average DRAM read bandwidth in MiBytes/s
system.mem_ctrls.dram.avgWrBW              667.491014                       # Average DRAM write bandwidth in MiBytes/s
system.mem_ctrls.dram.peakBW                 12800.00                       # Theoretical peak bandwidth in MiByte/s
system.mem_ctrls.dram.busUtil                   10.50                       # Data bus utilization in percentage
system.mem_ctrls.dram.busUtilRead                5.28                       # Data bus utilization in percentage for reads
system.mem_ctrls.dram.busUtilWrite               5.21                       # Data bus utilization in percentage for writes
system.mem_ctrls.dram.pageHitRate               88.83                       # Row buffer hit rate, read and write combined
system.mem_ctrls.dram.power_state.pwrStateResidencyTicks::UNDEFINED 498362101000                       # Cumulative time (in ticks) in various power states
system.mem_ctrls.dram.rank0.actEnergy      4174115400                       # Energy for activate commands per rank (pJ)
system.mem_ctrls.dram.rank0.preEnergy      2218591155                       # Energy for precharge commands per rank (pJ)
system.mem_ctrls.dram.rank0.readEnergy    18796892520                       # Energy for read commands per rank (pJ)
system.mem_ctrls.dram.rank0.writeEnergy   13568392980                       # Energy for write commands per rank (pJ)
system.mem_ctrls.dram.rank0.refreshEnergy 39340033200.000008                       # Energy for refresh commands per rank (pJ)
system.mem_ctrls.dram.rank0.actBackEnergy 115841269290                       # Energy for active background per rank (pJ)
system.mem_ctrls.dram.rank0.preBackEnergy  93820504320                       # Energy for precharge background per rank (pJ)
system.mem_ctrls.dram.rank0.actPowerDownEnergy            0                       # Energy for active power-down per rank (pJ)
system.mem_ctrls.dram.rank0.prePowerDownEnergy            0                       # Energy for precharge power-down per rank (pJ)
system.mem_ctrls.dram.rank0.selfRefreshEnergy            0                       # Energy for self refresh per rank (pJ)
system.mem_ctrls.dram.rank0.totalEnergy  287759798865                       # Total energy per rank (pJ)
system.mem_ctrls.dram.rank0.averagePower   577.411080                       # Core power per rank (mW)
system.mem_ctrls.dram.rank0.totalIdleTime            0                       # Total Idle time Per DRAM Rank
system.mem_ctrls.dram.rank0.pwrStateTime::IDLE 238913083000                       # Time in different power states
system.mem_ctrls.dram.rank0.pwrStateTime::REF  16641300000                       # Time in different power states
system.mem_ctrls.dram.rank0.pwrStateTime::SREF            0                       # Time in different power states
system.mem_ctrls.dram.rank0.pwrStateTime::PRE_PDN            0                       # Time in different power states
system.mem_ctrls.dram.rank0.pwrStateTime::ACT 242807718000                       # Time in different power states
system.mem_ctrls.dram.rank0.pwrStateTime::ACT_PDN            0                       # Time in different power states
system.mem_ctrls.dram.rank1.actEnergy      4173244320                       # Energy for activate commands per rank (pJ)
system.mem_ctrls.dram.rank1.preEnergy      2218131960                       # Energy for precharge commands per rank (pJ)
system.mem_ctrls.dram.rank1.readEnergy    18790780680                       # Energy for read commands per rank (pJ)
system.mem_ctrls.dram.rank1.writeEnergy   13563554040                       # Energy for write commands per rank (pJ)
system.mem_ctrls.dram.rank1.refreshEnergy 39340033200.000008                       # Energy for refresh commands per rank (pJ)
system.mem_ctrls.dram.rank1.actBackEnergy 115855133400                       # Energy for active background per rank (pJ)
system.mem_ctrls.dram.rank1.preBackEnergy  93808829280                       # Energy for precharge background per rank (pJ)
system.mem_ctrls.dram.rank1.actPowerDownEnergy            0                       # Energy for active power-down per rank (pJ)
system.mem_ctrls.dram.rank1.prePowerDownEnergy            0                       # Energy for precharge power-down per rank (pJ)
system.mem_ctrls.dram.rank1.selfRefreshEnergy            0                       # Energy for self refresh per rank (pJ)
system.mem_ctrls.dram.rank1.totalEnergy  287749706880                       # Total energy per rank (pJ)
system.mem_ctrls.dram.rank1.averagePower   577.390829                       # Core power per rank (mW)
system.mem_ctrls.dram.rank1.totalIdleTime            0                       # Total Idle time Per DRAM Rank
system.mem_ctrls.dram.rank1.pwrStateTime::IDLE 238884898750                       # Time in different power states
system.mem_ctrls.dram.rank1.pwrStateTime::REF  16641300000                       # Time in different power states
system.mem_ctrls.dram.rank1.pwrStateTime::SREF            0                       # Time in different power states
system.mem_ctrls.dram.rank1.pwrStateTime::PRE_PDN            0                       # Time in different power states
system.mem_ctrls.dram.rank1.pwrStateTime::ACT 242835902250                       # Time in different power states
system.mem_ctrls.dram.rank1.pwrStateTime::ACT_PDN            0                       # Time in different power states
system.mem_ctrls.power_state.pwrStateResidencyTicks::UNDEFINED 498362101000                       # Cumulative time (in ticks) in various power states
system.membus.trans_dist::ReadResp                584                       # Transaction distribution
system.membus.trans_dist::WritebackDirty      2598860                       # Transaction distribution
system.membus.trans_dist::CleanEvict              178                       # Transaction distribution
system.membus.trans_dist::ReadExReq           2631606                       # Transaction distribution
system.membus.trans_dist::ReadExResp          2631606                       # Transaction distribution
system.membus.trans_dist::ReadSharedReq           584                       # Transaction distribution
system.membus.pkt_count_system.l2.mem_side_port::system.mem_ctrls.port      7863418                       # Packet count per connected requestor and responder (bytes)
system.membus.pkt_count::total                7863418                       # Packet count per connected requestor and responder (bytes)
system.membus.pkt_size_system.l2.mem_side_port::system.mem_ctrls.port    669574400                       # Cumulative packet size per connected requestor and responder (bytes)
system.membus.pkt_size::total               669574400                       # Cumulative packet size per connected requestor and responder (bytes)
system.membus.snoops                                0                       # Total snoops (count)
system.membus.snoopTraffic                          0                       # Total snoop traffic (bytes)
system.membus.snoop_fanout::samples           2632190                       # Request fanout histogram
system.membus.snoop_fanout::mean                    0                       # Request fanout histogram
system.membus.snoop_fanout::stdev                   0                       # Request fanout histogram
system.membus.snoop_fanout::underflows              0      0.00%      0.00% # Request fanout histogram
system.membus.snoop_fanout::0                 2632190    100.00%    100.00% # Request fanout histogram
system.membus.snoop_fanout::1                       0      0.00%    100.00% # Request fanout histogram
system.membus.snoop_fanout::overflows               0      0.00%    100.00% # Request fanout histogram
system.membus.snoop_fanout::min_value               0                       # Request fanout histogram
system.membus.snoop_fanout::max_value               0                       # Request fanout histogram
system.membus.snoop_fanout::total             2632190                       # Request fanout histogram
system.membus.power_state.pwrStateResidencyTicks::UNDEFINED 498362101000                       # Cumulative time (in ticks) in various power states
system.membus.reqLayer0.occupancy         26022108000                       # Layer occupancy (ticks)
system.membus.reqLayer0.utilization               5.2                       # Layer utilization (%)
system.membus.respLayer1.occupancy        24419002500                       # Layer occupancy (ticks)
system.membus.respLayer1.utilization              4.9                       # Layer utilization (%)
system.tol2bus.trans_dist::ReadResp               825                       # Transaction distribution
system.tol2bus.trans_dist::WritebackDirty      5230161                       # Transaction distribution
system.tol2bus.trans_dist::WritebackClean           39                       # Transaction distribution
system.tol2bus.trans_dist::CleanEvict             954                       # Transaction distribution
system.tol2bus.trans_dist::ReadExReq          2631780                       # Transaction distribution
system.tol2bus.trans_dist::ReadExResp         2631780                       # Transaction distribution
system.tol2bus.trans_dist::ReadCleanReq           409                       # Transaction distribution
system.tol2bus.trans_dist::ReadSharedReq          416                       # Transaction distribution
system.tol2bus.pkt_count_system.cpu.icache.mem_side_port::system.l2.cpu_side_port          857                       # Packet count per connected requestor and responder (bytes)
system.tol2bus.pkt_count_system.cpu.dcache.mem_side_port::system.l2.cpu_side_port      7896076                       # Packet count per connected requestor and responder (bytes)
system.tol2bus.pkt_count::total               7896933                       # Packet count per connected requestor and responder (bytes)
system.tol2bus.pkt_size_system.cpu.icache.mem_side_port::system.l2.cpu_side_port        57344                       # Cumulative packet size per connected requestor and responder (bytes)
system.tol2bus.pkt_size_system.cpu.dcache.mem_side_port::system.l2.cpu_side_port    673727616                       # Cumulative packet size per connected requestor and responder (bytes)
system.tol2bus.pkt_size::total              673784960                       # Cumulative packet size per connected requestor and responder (bytes)
system.tol2bus.snoops                         2599431                       # Total snoops (count)
system.tol2bus.snoopTraffic                 332654080                       # Total snoop traffic (bytes)
system.tol2bus.snoop_fanout::samples          5232036                       # Request fanout histogram
system.tol2bus.snoop_fanout::mean            0.000087                       # Request fanout histogram
system.tol2bus.snoop_fanout::stdev           0.009315                       # Request fanout histogram
system.tol2bus.snoop_fanout::underflows             0      0.00%      0.00% # Request fanout histogram
system.tol2bus.snoop_fanout::0                5231582     99.99%     99.99% # Request fanout histogram
system.tol2bus.snoop_fanout::1                    454      0.01%    100.00% # Request fanout histogram
system.tol2bus.snoop_fanout::2                      0      0.00%    100.00% # Request fanout histogram
system.tol2bus.snoop_fanout::overflows              0      0.00%    100.00% # Request fanout histogram
system.tol2bus.snoop_fanout::min_value              0                       # Request fanout histogram
system.tol2bus.snoop_fanout::max_value              1                       # Request fanout histogram
system.tol2bus.snoop_fanout::total            5232036                       # Request fanout histogram
system.tol2bus.power_state.pwrStateResidencyTicks::UNDEFINED 498362101000                       # Cumulative time (in ticks) in various power states
system.tol2bus.reqLayer0.occupancy        15789688000                       # Layer occupancy (ticks)
system.tol2bus.reqLayer0.utilization              3.2                       # Layer utilization (%)
system.tol2bus.respLayer0.occupancy           2045999                       # Layer occupancy (ticks)
system.tol2bus.respLayer0.utilization             0.0                       # Layer utilization (%)
system.tol2bus.respLayer1.occupancy       13160987992                       # Layer occupancy (ticks)
system.tol2bus.respLayer1.utilization             2.6                       # Layer utilization (%)
system.voltage_domain.voltage                       1                       # Voltage in Volts

---------- End Simulation Statistics   ----------
